/*---------------------------------------------------------------------------*\
  =========                 |
  \\      /  F ield         | OpenFOAM: The Open Source CFD Toolbox
   \\    /   O peration     | Website:  https://openfoam.org
    \\  /    A nd           | Version:  12
     \\/     M anipulation  |
\*---------------------------------------------------------------------------*/
Build  : 12-0b487fc98b88
Exec   : transformPoints scale=(1 0 1)
Date   : May 14 2026
Time   : 13:52:20
Host   : "kol-serv"
PID    : 6892
I/O    : uncollated
Case   : /home/kol/OpenFOAM/kol-12/run/aerofoilNACA0012Steady
nProcs : 1
sigFpe : Enabling floating point exception trapping (FOAM_SIGFPE).
fileModificationChecking : Monitoring run-time modified files using timeStampMaster (fileModificationSkew 10)
allowSystemOperations : Allowing user-supplied system call operations

// * * * * * * * * * * * * * * * * * * * * * * * * * * * * * * * * * * * * * //
Create time

Expanding #calc at line 19 in file "/home/kol/OpenFOAM/kol-12/run/aerofoilNACA0012Steady/system/functions/forceCoeffsCompressible/forceCoeffsCompressible"
Expanding #calc at line 22 in file "/home/kol/OpenFOAM/kol-12/run/aerofoilNACA0012Steady/system/functions/forceCoeffsCompressible/forceCoeffsCompressible"
Expanding #calc at line 23 in file "/home/kol/OpenFOAM/kol-12/run/aerofoilNACA0012Steady/system/functions/forceCoeffsCompressible/forceCoeffsCompressible"
Expanding #calc at line 25 in file "/home/kol/OpenFOAM/kol-12/run/aerofoilNACA0012Steady/system/functions/forceCoeffsCompressible/forceCoeffsCompressible"
Writing points into directory "/home/kol/OpenFOAM/kol-12/run/aerofoilNACA0012Steady/constant/polyMesh"

End

