/*---------------------------------------------------------------------------*\
  =========                 |
  \\      /  F ield         | OpenFOAM: The Open Source CFD Toolbox
   \\    /   O peration     | Website:  https://openfoam.org
    \\  /    A nd           | Version:  12
     \\/     M anipulation  |
\*---------------------------------------------------------------------------*/
Build  : 12-0b487fc98b88
Exec   : foamRun
Date   : May 14 2026
Time   : 13:52:21
Host   : "kol-serv"
PID    : 6894
I/O    : uncollated
Case   : /home/kol/OpenFOAM/kol-12/run/aerofoilNACA0012Steady
nProcs : 1
sigFpe : Enabling floating point exception trapping (FOAM_SIGFPE).
fileModificationChecking : Monitoring run-time modified files using timeStampMaster (fileModificationSkew 10)
allowSystemOperations : Allowing user-supplied system call operations

// * * * * * * * * * * * * * * * * * * * * * * * * * * * * * * * * * * * * * //
Create time

Expanding #calc at line 19 in file "/home/kol/OpenFOAM/kol-12/run/aerofoilNACA0012Steady/system/functions/forceCoeffsCompressible/forceCoeffsCompressible"
Expanding #calc at line 22 in file "/home/kol/OpenFOAM/kol-12/run/aerofoilNACA0012Steady/system/functions/forceCoeffsCompressible/forceCoeffsCompressible"
Expanding #calc at line 23 in file "/home/kol/OpenFOAM/kol-12/run/aerofoilNACA0012Steady/system/functions/forceCoeffsCompressible/forceCoeffsCompressible"
Expanding #calc at line 25 in file "/home/kol/OpenFOAM/kol-12/run/aerofoilNACA0012Steady/system/functions/forceCoeffsCompressible/forceCoeffsCompressible"
Create mesh for time = 0

Selecting solver fluid
Selecting thermodynamics package 
{
    type            hePsiThermo;
    mixture         pureMixture;
    transport       const;
    thermo          hConst;
    equationOfState perfectGas;
    specie          specie;
    energy          sensibleEnthalpy;
}

Expanding #calc at line 19 in file "/home/kol/OpenFOAM/kol-12/run/aerofoilNACA0012Steady/0/U"
Expanding #calc at line 22 in file "/home/kol/OpenFOAM/kol-12/run/aerofoilNACA0012Steady/0/U"
Expanding #calc at line 23 in file "/home/kol/OpenFOAM/kol-12/run/aerofoilNACA0012Steady/0/U"
Expanding #calc at line 25 in file "/home/kol/OpenFOAM/kol-12/run/aerofoilNACA0012Steady/0/U"
Selecting turbulence model type RAS
Selecting RAS turbulence model kOmegaSST
RAS
{
    model           kOmegaSST;
    turbulence      on;
    printCoeffs     on;
    alphaK1         0.85;
    alphaK2         1;
    alphaOmega1     0.5;
    alphaOmega2     0.856;
    gamma1          0.5555555556;
    gamma2          0.44;
    beta1           0.075;
    beta2           0.0828;
    betaStar        0.09;
    a1              0.31;
    b1              1;
    c1              10;
    F3              false;
}

No MRF models present

Selecting patchDistMethod meshWave
Creating fvConstraints from "system/fvConstraints"

Selecting finite volume constraint type limitPressure
    Name: limitPressure(minFactor=0.1,maxFactor=2)
    min 10000
    max 200000

Selecting finite volume constraint type limitTemperature
    Name: limitTemperature(min=101,max=1000)
    - selecting all cells
    - selected 16200 cell(s) with volume 13895.80017
Selecting thermophysical transport type RAS
Selecting default RAS thermophysical transport model unityLewisEddyDiffusivity

PIMPLE: Convergence criteria found
        p: tolerance 1e-06
        U: tolerance 1e-05
        "(k|omega|h)": tolerance 1e-05


PIMPLE: Operating solver in steady-state mode with 1 outer corrector
PIMPLE: Operating solver in SIMPLE mode



Starting time loop

Time = 1s

DILUPBiCGStab:  Solving for Ux, Initial residual = 0.9999999988, Final residual = 0.03686240207, No Iterations 2
DILUPBiCGStab:  Solving for Uz, Initial residual = 1, Final residual = 0.07026023419, No Iterations 2
DILUPBiCGStab:  Solving for h, Initial residual = 0.9999999993, Final residual = 0.05645944075, No Iterations 2
GAMG:  Solving for p, Initial residual = 0.9999999994, Final residual = 0.009111262953, No Iterations 14
time step continuity errors : sum local = 4.590485852e-05, global = 1.751035816e-06, cumulative = 1.751035816e-06
limitPressure: max 871947.2138
DILUPBiCGStab:  Solving for omega, Initial residual = 0.0001933154784, Final residual = 3.652406982e-06, No Iterations 1
DILUPBiCGStab:  Solving for k, Initial residual = 1, Final residual = 0.01079732058, No Iterations 1
ExecutionTime = 0.43997 s  ClockTime = 0 s

Time = 2s

DILUPBiCGStab:  Solving for Ux, Initial residual = 0.02033448287, Final residual = 0.001552492033, No Iterations 1
DILUPBiCGStab:  Solving for Uz, Initial residual = 0.6028459461, Final residual = 0.04128179257, No Iterations 1
DILUPBiCGStab:  Solving for h, Initial residual = 0.1019740026, Final residual = 0.006605182696, No Iterations 1
GAMG:  Solving for p, Initial residual = 0.0240365983, Final residual = 0.0002260491706, No Iterations 6
time step continuity errors : sum local = 0.0005278912236, global = -0.0002542931411, cumulative = -0.0002525421053
limitPressure: max 394704.1425
DILUPBiCGStab:  Solving for omega, Initial residual = 0.002913409036, Final residual = 0.0001887420786, No Iterations 1
DILUPBiCGStab:  Solving for k, Initial residual = 0.0344234691, Final residual = 0.0001740581978, No Iterations 1
ExecutionTime = 0.520482 s  ClockTime = 0 s

Time = 3s

DILUPBiCGStab:  Solving for Ux, Initial residual = 0.009656219859, Final residual = 0.0007642182545, No Iterations 1
DILUPBiCGStab:  Solving for Uz, Initial residual = 0.2176760632, Final residual = 0.02111833509, No Iterations 1
DILUPBiCGStab:  Solving for h, Initial residual = 0.03887283014, Final residual = 0.0002374031515, No Iterations 1
GAMG:  Solving for p, Initial residual = 0.02257363046, Final residual = 0.0002013559415, No Iterations 12
time step continuity errors : sum local = 0.0004315086436, global = -0.0002849857912, cumulative = -0.0005375278965
limitPressure: max 302805.3426
DILUPBiCGStab:  Solving for omega, Initial residual = 0.007309005604, Final residual = 4.292516182e-06, No Iterations 1
DILUPBiCGStab:  Solving for k, Initial residual = 0.003780805312, Final residual = 7.570968701e-05, No Iterations 1
ExecutionTime = 0.616085 s  ClockTime = 0 s

Time = 4s

DILUPBiCGStab:  Solving for Ux, Initial residual = 0.003178052258, Final residual = 9.009975537e-05, No Iterations 1
DILUPBiCGStab:  Solving for Uz, Initial residual = 0.1378130967, Final residual = 0.005943626496, No Iterations 1
DILUPBiCGStab:  Solving for h, Initial residual = 0.02111536946, Final residual = 0.0003394292321, No Iterations 1
GAMG:  Solving for p, Initial residual = 0.03187064373, Final residual = 0.0002893376157, No Iterations 10
time step continuity errors : sum local = 0.0002284826429, global = -0.0001431581071, cumulative = -0.0006806860036
DILUPBiCGStab:  Solving for omega, Initial residual = 0.001455939227, Final residual = 4.331691608e-06, No Iterations 1
DILUPBiCGStab:  Solving for k, Initial residual = 0.002327463024, Final residual = 4.341123777e-05, No Iterations 1
ExecutionTime = 0.70847 s  ClockTime = 1 s

Time = 5s

DILUPBiCGStab:  Solving for Ux, Initial residual = 0.003772663119, Final residual = 0.0002312780192, No Iterations 1
DILUPBiCGStab:  Solving for Uz, Initial residual = 0.2699938245, Final residual = 0.001749045151, No Iterations 1
DILUPBiCGStab:  Solving for h, Initial residual = 0.01219008211, Final residual = 0.001120457903, No Iterations 1
GAMG:  Solving for p, Initial residual = 0.06459849712, Final residual = 0.0004677927738, No Iterations 9
time step continuity errors : sum local = 0.0003270220324, global = 9.084004296e-05, cumulative = -0.0005898459607
DILUPBiCGStab:  Solving for omega, Initial residual = 0.0003617515327, Final residual = 5.94790076e-06, No Iterations 1
DILUPBiCGStab:  Solving for k, Initial residual = 0.002553189908, Final residual = 4.492904011e-05, No Iterations 1
ExecutionTime = 0.797038 s  ClockTime = 1 s

Time = 6s

DILUPBiCGStab:  Solving for Ux, Initial residual = 0.002160252359, Final residual = 0.000141750979, No Iterations 1
DILUPBiCGStab:  Solving for Uz, Initial residual = 0.2040571737, Final residual = 0.001831011456, No Iterations 1
DILUPBiCGStab:  Solving for h, Initial residual = 0.009068965344, Final residual = 0.0003160976381, No Iterations 1
GAMG:  Solving for p, Initial residual = 0.05154952099, Final residual = 0.0004138313546, No Iterations 11
time step continuity errors : sum local = 0.0003008449416, global = -2.985394156e-05, cumulative = -0.0006196999022
DILUPBiCGStab:  Solving for omega, Initial residual = 0.0003732960758, Final residual = 4.462540708e-06, No Iterations 1
DILUPBiCGStab:  Solving for k, Initial residual = 0.002428027948, Final residual = 3.567972936e-05, No Iterations 1
ExecutionTime = 0.889763 s  ClockTime = 1 s

Time = 7s

DILUPBiCGStab:  Solving for Ux, Initial residual = 0.001194567659, Final residual = 7.526743458e-05, No Iterations 1
DILUPBiCGStab:  Solving for Uz, Initial residual = 0.196897863, Final residual = 0.01218270138, No Iterations 1
DILUPBiCGStab:  Solving for h, Initial residual = 0.008122837389, Final residual = 0.0003188056943, No Iterations 1
GAMG:  Solving for p, Initial residual = 0.1590807648, Final residual = 0.001462562639, No Iterations 5
time step continuity errors : sum local = 0.000298211004, global = 3.682423874e-05, cumulative = -0.0005828756635
DILUPBiCGStab:  Solving for omega, Initial residual = 0.0003605525883, Final residual = 3.758941588e-06, No Iterations 1
DILUPBiCGStab:  Solving for k, Initial residual = 0.003673241743, Final residual = 1.642645674e-05, No Iterations 1
ExecutionTime = 0.966995 s  ClockTime = 1 s

Time = 8s

DILUPBiCGStab:  Solving for Ux, Initial residual = 0.001839840345, Final residual = 0.0001386171815, No Iterations 1
DILUPBiCGStab:  Solving for Uz, Initial residual = 0.1679730707, Final residual = 0.0009746498377, No Iterations 1
DILUPBiCGStab:  Solving for h, Initial residual = 0.007754799829, Final residual = 0.0005161071632, No Iterations 1
GAMG:  Solving for p, Initial residual = 0.05442379031, Final residual = 0.0005314894709, No Iterations 8
time step continuity errors : sum local = 0.0003837631368, global = 7.182691822e-05, cumulative = -0.0005110487453
DILUPBiCGStab:  Solving for omega, Initial residual = 0.0005601143783, Final residual = 3.545749659e-06, No Iterations 1
DILUPBiCGStab:  Solving for k, Initial residual = 0.0008928925485, Final residual = 4.425148175e-06, No Iterations 1
ExecutionTime = 1.051871 s  ClockTime = 1 s

Time = 9s

DILUPBiCGStab:  Solving for Ux, Initial residual = 0.001725762788, Final residual = 9.60020372e-05, No Iterations 1
DILUPBiCGStab:  Solving for Uz, Initial residual = 0.08980361884, Final residual = 0.0006094844127, No Iterations 1
DILUPBiCGStab:  Solving for h, Initial residual = 0.007406804571, Final residual = 0.0005843100873, No Iterations 1
GAMG:  Solving for p, Initial residual = 0.06990559327, Final residual = 0.0006409261042, No Iterations 9
time step continuity errors : sum local = 0.0003214438343, global = -5.131256031e-05, cumulative = -0.0005623613056
DILUPBiCGStab:  Solving for omega, Initial residual = 0.0003747270075, Final residual = 2.379790097e-06, No Iterations 1
DILUPBiCGStab:  Solving for k, Initial residual = 0.0007416650045, Final residual = 1.42670914e-06, No Iterations 1
ExecutionTime = 1.140916 s  ClockTime = 1 s

Time = 10s

DILUPBiCGStab:  Solving for Ux, Initial residual = 0.001085768246, Final residual = 7.490738797e-06, No Iterations 1
DILUPBiCGStab:  Solving for Uz, Initial residual = 0.09573240183, Final residual = 0.008319506018, No Iterations 1
DILUPBiCGStab:  Solving for h, Initial residual = 0.0067365853, Final residual = 0.0005258974313, No Iterations 1
GAMG:  Solving for p, Initial residual = 0.3595240985, Final residual = 0.00255425616, No Iterations 6
time step continuity errors : sum local = 0.0002463675364, global = -3.664185186e-05, cumulative = -0.0005990031575
DILUPBiCGStab:  Solving for omega, Initial residual = 0.0003251477761, Final residual = 2.553789086e-06, No Iterations 1
DILUPBiCGStab:  Solving for k, Initial residual = 0.0009639570253, Final residual = 2.440611907e-06, No Iterations 1
ExecutionTime = 1.221982 s  ClockTime = 1 s

Time = 11s

DILUPBiCGStab:  Solving for Ux, Initial residual = 0.001193110558, Final residual = 0.0001056636461, No Iterations 1
DILUPBiCGStab:  Solving for Uz, Initial residual = 0.1023076558, Final residual = 0.000787020506, No Iterations 1
DILUPBiCGStab:  Solving for h, Initial residual = 0.005893322597, Final residual = 0.0004525689488, No Iterations 1
GAMG:  Solving for p, Initial residual = 0.3856465302, Final residual = 0.003121912159, No Iterations 8
time step continuity errors : sum local = 0.0002971391118, global = 3.190769997e-05, cumulative = -0.0005670954575
DILUPBiCGStab:  Solving for omega, Initial residual = 0.000238929074, Final residual = 2.023758283e-06, No Iterations 1
DILUPBiCGStab:  Solving for k, Initial residual = 0.000967900817, Final residual = 3.035965073e-06, No Iterations 1
ExecutionTime = 1.309117 s  ClockTime = 1 s

Time = 12s

DILUPBiCGStab:  Solving for Ux, Initial residual = 0.0008825181929, Final residual = 3.257359066e-05, No Iterations 1
DILUPBiCGStab:  Solving for Uz, Initial residual = 0.08841081728, Final residual = 0.007026680242, No Iterations 1
DILUPBiCGStab:  Solving for h, Initial residual = 0.005378847851, Final residual = 0.0003515853496, No Iterations 1
GAMG:  Solving for p, Initial residual = 0.2113067571, Final residual = 0.002031069913, No Iterations 6
time step continuity errors : sum local = 0.0003407227711, global = 0.0001200991253, cumulative = -0.0004469963321
DILUPBiCGStab:  Solving for omega, Initial residual = 0.0002473918339, Final residual = 1.748595957e-06, No Iterations 1
DILUPBiCGStab:  Solving for k, Initial residual = 0.0009133643542, Final residual = 2.938702503e-06, No Iterations 1
ExecutionTime = 1.393146 s  ClockTime = 1 s

Time = 13s

DILUPBiCGStab:  Solving for Ux, Initial residual = 0.0005827139975, Final residual = 4.122865637e-06, No Iterations 1
DILUPBiCGStab:  Solving for Uz, Initial residual = 0.07679986333, Final residual = 0.005148975989, No Iterations 1
DILUPBiCGStab:  Solving for h, Initial residual = 0.005038328256, Final residual = 0.0002820387459, No Iterations 1
GAMG:  Solving for p, Initial residual = 0.125481883, Final residual = 0.0009931060427, No Iterations 6
time step continuity errors : sum local = 0.0002857001474, global = 1.66922051e-05, cumulative = -0.000430304127
DILUPBiCGStab:  Solving for omega, Initial residual = 0.0002672346923, Final residual = 1.648700234e-06, No Iterations 1
DILUPBiCGStab:  Solving for k, Initial residual = 0.0009567913152, Final residual = 2.710445715e-06, No Iterations 1
ExecutionTime = 1.48257 s  ClockTime = 1 s

Time = 14s

DILUPBiCGStab:  Solving for Ux, Initial residual = 0.0007438575197, Final residual = 6.749574554e-05, No Iterations 1
DILUPBiCGStab:  Solving for Uz, Initial residual = 0.06882519162, Final residual = 0.005907424097, No Iterations 1
DILUPBiCGStab:  Solving for h, Initial residual = 0.005018919433, Final residual = 0.0003158528631, No Iterations 1
GAMG:  Solving for p, Initial residual = 0.1750468778, Final residual = 0.001168471395, No Iterations 8
time step continuity errors : sum local = 0.0002388368314, global = -2.986105299e-05, cumulative = -0.00046016518
DILUPBiCGStab:  Solving for omega, Initial residual = 0.0002123041209, Final residual = 1.75074373e-06, No Iterations 1
DILUPBiCGStab:  Solving for k, Initial residual = 0.001018919519, Final residual = 3.077507455e-06, No Iterations 1
ExecutionTime = 1.578357 s  ClockTime = 1 s

Time = 15s

DILUPBiCGStab:  Solving for Ux, Initial residual = 0.0006068385779, Final residual = 1.57793507e-05, No Iterations 1
DILUPBiCGStab:  Solving for Uz, Initial residual = 0.0597766709, Final residual = 0.00442512306, No Iterations 1
DILUPBiCGStab:  Solving for h, Initial residual = 0.005264180743, Final residual = 0.0003611608419, No Iterations 1
GAMG:  Solving for p, Initial residual = 0.5479835725, Final residual = 0.003756575147, No Iterations 6
time step continuity errors : sum local = 0.0002599432084, global = -8.09451397e-05, cumulative = -0.0005411103197
DILUPBiCGStab:  Solving for omega, Initial residual = 0.0002184345813, Final residual = 2.073355723e-06, No Iterations 1
DILUPBiCGStab:  Solving for k, Initial residual = 0.001000557567, Final residual = 3.715426434e-06, No Iterations 1
ExecutionTime = 1.663534 s  ClockTime = 2 s

Time = 16s

DILUPBiCGStab:  Solving for Ux, Initial residual = 0.0004337440443, Final residual = 3.857752447e-05, No Iterations 1
DILUPBiCGStab:  Solving for Uz, Initial residual = 0.05028605675, Final residual = 0.00295170427, No Iterations 1
DILUPBiCGStab:  Solving for h, Initial residual = 0.005419088442, Final residual = 0.0004289099674, No Iterations 1
GAMG:  Solving for p, Initial residual = 0.7437942884, Final residual = 0.007345732156, No Iterations 5
time step continuity errors : sum local = 0.0003721800746, global = -2.279741917e-05, cumulative = -0.0005639077389
DILUPBiCGStab:  Solving for omega, Initial residual = 0.0002123229903, Final residual = 2.370340355e-06, No Iterations 1
DILUPBiCGStab:  Solving for k, Initial residual = 0.0007452258026, Final residual = 3.619076013e-06, No Iterations 1
ExecutionTime = 1.743492 s  ClockTime = 2 s

Time = 17s

DILUPBiCGStab:  Solving for Ux, Initial residual = 0.0004763500677, Final residual = 2.892546321e-06, No Iterations 1
DILUPBiCGStab:  Solving for Uz, Initial residual = 0.05338537353, Final residual = 0.003221182407, No Iterations 1
DILUPBiCGStab:  Solving for h, Initial residual = 0.00555744239, Final residual = 2.922334959e-05, No Iterations 1
GAMG:  Solving for p, Initial residual = 0.2606216374, Final residual = 0.002458819961, No Iterations 7
time step continuity errors : sum local = 0.0003423173266, global = -0.0001018065791, cumulative = -0.000665714318
DILUPBiCGStab:  Solving for omega, Initial residual = 0.0001755828018, Final residual = 2.027150794e-06, No Iterations 1
DILUPBiCGStab:  Solving for k, Initial residual = 0.000409964029, Final residual = 2.510709571e-06, No Iterations 1
ExecutionTime = 1.831978 s  ClockTime = 2 s

Time = 18s

DILUPBiCGStab:  Solving for Ux, Initial residual = 0.0004296835883, Final residual = 2.525538765e-05, No Iterations 1
DILUPBiCGStab:  Solving for Uz, Initial residual = 0.05417876689, Final residual = 0.003122845467, No Iterations 1
DILUPBiCGStab:  Solving for h, Initial residual = 0.005722427064, Final residual = 0.0005056979257, No Iterations 1
GAMG:  Solving for p, Initial residual = 0.1770970589, Final residual = 0.001237567767, No Iterations 6
time step continuity errors : sum local = 0.0002685500028, global = 7.809682518e-05, cumulative = -0.0005876174928
DILUPBiCGStab:  Solving for omega, Initial residual = 0.0001566192637, Final residual = 2.030058131e-06, No Iterations 1
DILUPBiCGStab:  Solving for k, Initial residual = 0.0003749189032, Final residual = 3.052991797e-06, No Iterations 1
ExecutionTime = 1.914258 s  ClockTime = 2 s

Time = 19s

DILUPBiCGStab:  Solving for Ux, Initial residual = 0.0003479205023, Final residual = 1.763006564e-05, No Iterations 1
DILUPBiCGStab:  Solving for Uz, Initial residual = 0.04289212288, Final residual = 0.001741339565, No Iterations 1
DILUPBiCGStab:  Solving for h, Initial residual = 0.006453433881, Final residual = 0.0006219221671, No Iterations 1
GAMG:  Solving for p, Initial residual = 0.2014554925, Final residual = 0.001354581724, No Iterations 5
time step continuity errors : sum local = 0.0002620012544, global = 2.078929012e-05, cumulative = -0.0005668282027
DILUPBiCGStab:  Solving for omega, Initial residual = 0.0001397892864, Final residual = 2.323002553e-06, No Iterations 1
DILUPBiCGStab:  Solving for k, Initial residual = 0.0003532666736, Final residual = 3.697972685e-06, No Iterations 1
ExecutionTime = 1.996652 s  ClockTime = 2 s

Time = 20s

DILUPBiCGStab:  Solving for Ux, Initial residual = 0.0003350735294, Final residual = 1.578527334e-05, No Iterations 1
DILUPBiCGStab:  Solving for Uz, Initial residual = 0.04140368592, Final residual = 0.001759116585, No Iterations 1
DILUPBiCGStab:  Solving for h, Initial residual = 0.007334847008, Final residual = 0.0007275507753, No Iterations 1
GAMG:  Solving for p, Initial residual = 0.3128875608, Final residual = 0.001882659431, No Iterations 7
time step continuity errors : sum local = 0.0002303257113, global = 3.907802391e-05, cumulative = -0.0005277501788
DILUPBiCGStab:  Solving for omega, Initial residual = 0.0001439108197, Final residual = 2.75655852e-06, No Iterations 1
DILUPBiCGStab:  Solving for k, Initial residual = 0.0002863304607, Final residual = 3.131749475e-06, No Iterations 1
ExecutionTime = 2.092615 s  ClockTime = 2 s

Time = 21s

DILUPBiCGStab:  Solving for Ux, Initial residual = 0.0003708794053, Final residual = 1.174405733e-05, No Iterations 1
DILUPBiCGStab:  Solving for Uz, Initial residual = 0.04455552101, Final residual = 0.002404325903, No Iterations 1
DILUPBiCGStab:  Solving for h, Initial residual = 0.008471894448, Final residual = 0.0008308221167, No Iterations 1
GAMG:  Solving for p, Initial residual = 0.4747989872, Final residual = 0.003663098986, No Iterations 6
time step continuity errors : sum local = 0.000306320721, global = -0.0001445939888, cumulative = -0.0006723441676
DILUPBiCGStab:  Solving for omega, Initial residual = 0.0001115657576, Final residual = 2.465504808e-06, No Iterations 1
DILUPBiCGStab:  Solving for k, Initial residual = 0.0002668262116, Final residual = 3.824514294e-06, No Iterations 1
ExecutionTime = 2.175571 s  ClockTime = 2 s

Time = 22s

DILUPBiCGStab:  Solving for Ux, Initial residual = 0.0003298674937, Final residual = 1.230677188e-05, No Iterations 1
DILUPBiCGStab:  Solving for Uz, Initial residual = 0.03679860465, Final residual = 0.002124544731, No Iterations 1
DILUPBiCGStab:  Solving for h, Initial residual = 0.01044562173, Final residual = 0.001025148177, No Iterations 1
GAMG:  Solving for p, Initial residual = 0.3388463356, Final residual = 0.002558380797, No Iterations 5
time step continuity errors : sum local = 0.0003037145158, global = 6.275735438e-05, cumulative = -0.0006095868132
DILUPBiCGStab:  Solving for omega, Initial residual = 0.0001028408915, Final residual = 2.775073069e-06, No Iterations 1
DILUPBiCGStab:  Solving for k, Initial residual = 0.0002632096359, Final residual = 4.543995595e-06, No Iterations 1
ExecutionTime = 2.25478 s  ClockTime = 2 s

Time = 23s

DILUPBiCGStab:  Solving for Ux, Initial residual = 0.0002888851385, Final residual = 1.461373106e-05, No Iterations 1
DILUPBiCGStab:  Solving for Uz, Initial residual = 0.03901945033, Final residual = 0.001773971434, No Iterations 1
DILUPBiCGStab:  Solving for h, Initial residual = 0.01412061714, Final residual = 0.001392103581, No Iterations 1
GAMG:  Solving for p, Initial residual = 0.2188320641, Final residual = 0.001573903705, No Iterations 5
time step continuity errors : sum local = 0.0002837250442, global = -6.871597637e-05, cumulative = -0.0006783027896
DILUPBiCGStab:  Solving for omega, Initial residual = 0.0001070566007, Final residual = 3.07581363e-06, No Iterations 1
DILUPBiCGStab:  Solving for k, Initial residual = 0.0002390568692, Final residual = 4.451321529e-06, No Iterations 1
ExecutionTime = 2.334148 s  ClockTime = 2 s

Time = 24s

DILUPBiCGStab:  Solving for Ux, Initial residual = 0.0003392334503, Final residual = 1.459098902e-05, No Iterations 1
DILUPBiCGStab:  Solving for Uz, Initial residual = 0.03932745143, Final residual = 0.001522106134, No Iterations 1
DILUPBiCGStab:  Solving for h, Initial residual = 0.02255657872, Final residual = 0.002230278073, No Iterations 1
GAMG:  Solving for p, Initial residual = 0.1890323421, Final residual = 0.001659426565, No Iterations 5
time step continuity errors : sum local = 0.0003543974636, global = -9.419514085e-05, cumulative = -0.0007724979304
DILUPBiCGStab:  Solving for omega, Initial residual = 8.603672086e-05, Final residual = 2.634341996e-06, No Iterations 1
DILUPBiCGStab:  Solving for k, Initial residual = 0.0002161934667, Final residual = 5.472697959e-06, No Iterations 1
ExecutionTime = 2.414524 s  ClockTime = 2 s

Time = 25s

DILUPBiCGStab:  Solving for Ux, Initial residual = 0.0003081163628, Final residual = 1.375820756e-05, No Iterations 1
DILUPBiCGStab:  Solving for Uz, Initial residual = 0.03142885284, Final residual = 0.001139229948, No Iterations 1
DILUPBiCGStab:  Solving for h, Initial residual = 0.0460632518, Final residual = 0.004579319597, No Iterations 1
GAMG:  Solving for p, Initial residual = 0.1975131614, Final residual = 0.001938919062, No Iterations 5
time step continuity errors : sum local = 0.0004047135125, global = -0.0001389660204, cumulative = -0.0009114639508
DILUPBiCGStab:  Solving for omega, Initial residual = 7.840053499e-05, Final residual = 2.801968229e-06, No Iterations 1
DILUPBiCGStab:  Solving for k, Initial residual = 0.0002109084853, Final residual = 6.171600971e-06, No Iterations 1
ExecutionTime = 2.495623 s  ClockTime = 2 s

Time = 26s

DILUPBiCGStab:  Solving for Ux, Initial residual = 0.0002395771741, Final residual = 1.587274091e-05, No Iterations 1
DILUPBiCGStab:  Solving for Uz, Initial residual = 0.02778513261, Final residual = 0.001068627181, No Iterations 1
DILUPBiCGStab:  Solving for h, Initial residual = 0.02527652276, Final residual = 0.002506855318, No Iterations 1
GAMG:  Solving for p, Initial residual = 0.2198713737, Final residual = 0.001933052077, No Iterations 4
time step continuity errors : sum local = 0.0003587173445, global = 0.0001563397229, cumulative = -0.0007551242279
DILUPBiCGStab:  Solving for omega, Initial residual = 7.748258432e-05, Final residual = 2.844255412e-06, No Iterations 1
DILUPBiCGStab:  Solving for k, Initial residual = 0.0002010121596, Final residual = 6.559635858e-06, No Iterations 1
ExecutionTime = 2.581843 s  ClockTime = 2 s

Time = 27s

DILUPBiCGStab:  Solving for Ux, Initial residual = 0.0003048592028, Final residual = 1.599767219e-05, No Iterations 1
DILUPBiCGStab:  Solving for Uz, Initial residual = 0.03251592415, Final residual = 0.001121197587, No Iterations 1
DILUPBiCGStab:  Solving for h, Initial residual = 0.0162732526, Final residual = 0.001593099946, No Iterations 1
GAMG:  Solving for p, Initial residual = 0.2353101925, Final residual = 0.001811239338, No Iterations 4
time step continuity errors : sum local = 0.0003196002766, global = -4.576862965e-05, cumulative = -0.0008008928576
DILUPBiCGStab:  Solving for omega, Initial residual = 6.372539052e-05, Final residual = 2.380976818e-06, No Iterations 1
DILUPBiCGStab:  Solving for k, Initial residual = 0.0001912043383, Final residual = 7.634575927e-06, No Iterations 1
ExecutionTime = 2.657741 s  ClockTime = 3 s

Time = 28s

DILUPBiCGStab:  Solving for Ux, Initial residual = 0.0003680389829, Final residual = 1.494413911e-05, No Iterations 1
DILUPBiCGStab:  Solving for Uz, Initial residual = 0.03068793025, Final residual = 0.001002216, No Iterations 1
DILUPBiCGStab:  Solving for h, Initial residual = 0.0122899796, Final residual = 0.001143794857, No Iterations 1
GAMG:  Solving for p, Initial residual = 0.2215631842, Final residual = 0.00186197531, No Iterations 5
time step continuity errors : sum local = 0.0003557331001, global = 0.0001065926716, cumulative = -0.000694300186
DILUPBiCGStab:  Solving for omega, Initial residual = 5.683993012e-05, Final residual = 2.372801461e-06, No Iterations 1
DILUPBiCGStab:  Solving for k, Initial residual = 0.0001830021497, Final residual = 7.959086373e-06, No Iterations 1
ExecutionTime = 2.734411 s  ClockTime = 3 s

Time = 29s

DILUPBiCGStab:  Solving for Ux, Initial residual = 0.000309036592, Final residual = 1.28564661e-05, No Iterations 1
DILUPBiCGStab:  Solving for Uz, Initial residual = 0.02615095123, Final residual = 0.001103708071, No Iterations 1
DILUPBiCGStab:  Solving for h, Initial residual = 0.01021963966, Final residual = 0.0008890415154, No Iterations 1
GAMG:  Solving for p, Initial residual = 0.1941251068, Final residual = 0.001770793647, No Iterations 4
time step continuity errors : sum local = 0.000383997488, global = -0.000145812281, cumulative = -0.000840112467
DILUPBiCGStab:  Solving for omega, Initial residual = 5.360422401e-05, Final residual = 2.237726143e-06, No Iterations 1
DILUPBiCGStab:  Solving for k, Initial residual = 0.0001641444437, Final residual = 8.008252465e-06, No Iterations 1
ExecutionTime = 2.810184 s  ClockTime = 3 s

Time = 30s

DILUPBiCGStab:  Solving for Ux, Initial residual = 0.0002541879478, Final residual = 1.488554218e-05, No Iterations 1
DILUPBiCGStab:  Solving for Uz, Initial residual = 0.02749768282, Final residual = 0.00108478604, No Iterations 1
DILUPBiCGStab:  Solving for h, Initial residual = 0.00888613628, Final residual = 0.0007276650386, No Iterations 1
GAMG:  Solving for p, Initial residual = 0.1790241004, Final residual = 0.001731427453, No Iterations 3
time step continuity errors : sum local = 0.0004055862611, global = 6.693218819e-06, cumulative = -0.0008334192481
DILUPBiCGStab:  Solving for omega, Initial residual = 4.785643e-05, Final residual = 2.076014829e-06, No Iterations 1
DILUPBiCGStab:  Solving for k, Initial residual = 0.0001560663036, Final residual = 8.079005867e-06, No Iterations 1
ExecutionTime = 2.887233 s  ClockTime = 3 s

Time = 31s

DILUPBiCGStab:  Solving for Ux, Initial residual = 0.0002730283191, Final residual = 1.390510547e-05, No Iterations 1
DILUPBiCGStab:  Solving for Uz, Initial residual = 0.0286562807, Final residual = 0.0009099889863, No Iterations 1
DILUPBiCGStab:  Solving for h, Initial residual = 0.008389028078, Final residual = 0.000630991603, No Iterations 1
GAMG:  Solving for p, Initial residual = 0.1783408806, Final residual = 0.001160547493, No Iterations 4
time step continuity errors : sum local = 0.0002778228014, global = 8.165653561e-05, cumulative = -0.0007517627125
DILUPBiCGStab:  Solving for omega, Initial residual = 4.358859788e-05, Final residual = 1.989205445e-06, No Iterations 1
DILUPBiCGStab:  Solving for k, Initial residual = 0.0001446938911, Final residual = 7.608630945e-06, No Iterations 1
ExecutionTime = 2.963298 s  ClockTime = 3 s

Time = 32s

DILUPBiCGStab:  Solving for Ux, Initial residual = 0.0002888959606, Final residual = 1.31800709e-05, No Iterations 1
DILUPBiCGStab:  Solving for Uz, Initial residual = 0.02684073862, Final residual = 0.0009594112453, No Iterations 1
DILUPBiCGStab:  Solving for h, Initial residual = 0.008612709884, Final residual = 0.000577713036, No Iterations 1
GAMG:  Solving for p, Initial residual = 0.1738287737, Final residual = 0.001343810388, No Iterations 4
time step continuity errors : sum local = 0.0003296026112, global = 0.0001398005578, cumulative = -0.0006119621548
DILUPBiCGStab:  Solving for omega, Initial residual = 4.099681372e-05, Final residual = 1.917617712e-06, No Iterations 1
DILUPBiCGStab:  Solving for k, Initial residual = 0.0001363885301, Final residual = 7.411375524e-06, No Iterations 1
ExecutionTime = 3.038799 s  ClockTime = 3 s

Time = 33s

DILUPBiCGStab:  Solving for Ux, Initial residual = 0.0002411415879, Final residual = 1.514195503e-05, No Iterations 1
DILUPBiCGStab:  Solving for Uz, Initial residual = 0.02264749145, Final residual = 0.001140945304, No Iterations 1
DILUPBiCGStab:  Solving for h, Initial residual = 0.009121785182, Final residual = 0.0005720483782, No Iterations 1
GAMG:  Solving for p, Initial residual = 0.1709714645, Final residual = 0.001147591849, No Iterations 4
time step continuity errors : sum local = 0.0002814923328, global = -7.97301086e-05, cumulative = -0.0006916922634
DILUPBiCGStab:  Solving for omega, Initial residual = 3.795052317e-05, Final residual = 1.817825913e-06, No Iterations 1
DILUPBiCGStab:  Solving for k, Initial residual = 0.0001330465879, Final residual = 7.081469872e-06, No Iterations 1
ExecutionTime = 3.117078 s  ClockTime = 3 s

Time = 34s

DILUPBiCGStab:  Solving for Ux, Initial residual = 0.0002560949302, Final residual = 1.739224908e-05, No Iterations 1
DILUPBiCGStab:  Solving for Uz, Initial residual = 0.02280885994, Final residual = 0.0009431263347, No Iterations 1
DILUPBiCGStab:  Solving for h, Initial residual = 0.009686448253, Final residual = 0.0005935605519, No Iterations 1
GAMG:  Solving for p, Initial residual = 0.1720425962, Final residual = 0.001669866094, No Iterations 2
time step continuity errors : sum local = 0.0004041841092, global = 1.151695535e-05, cumulative = -0.000680175308
DILUPBiCGStab:  Solving for omega, Initial residual = 3.495896158e-05, Final residual = 1.769528503e-06, No Iterations 1
DILUPBiCGStab:  Solving for k, Initial residual = 0.0001259307887, Final residual = 6.586926756e-06, No Iterations 1
ExecutionTime = 3.187663 s  ClockTime = 3 s

Time = 35s

DILUPBiCGStab:  Solving for Ux, Initial residual = 0.0002776317262, Final residual = 1.410018958e-05, No Iterations 1
DILUPBiCGStab:  Solving for Uz, Initial residual = 0.02092951725, Final residual = 0.0008111856952, No Iterations 1
DILUPBiCGStab:  Solving for h, Initial residual = 0.01061067876, Final residual = 0.0006713327483, No Iterations 1
GAMG:  Solving for p, Initial residual = 0.1690071856, Final residual = 0.001386948696, No Iterations 4
time step continuity errors : sum local = 0.0003378209866, global = 5.464603069e-05, cumulative = -0.0006255292773
DILUPBiCGStab:  Solving for omega, Initial residual = 3.299006756e-05, Final residual = 1.746361992e-06, No Iterations 1
DILUPBiCGStab:  Solving for k, Initial residual = 0.000115237708, Final residual = 5.883818478e-06, No Iterations 1
ExecutionTime = 3.273369 s  ClockTime = 3 s

Time = 36s

DILUPBiCGStab:  Solving for Ux, Initial residual = 0.0002664605054, Final residual = 1.176040934e-05, No Iterations 1
DILUPBiCGStab:  Solving for Uz, Initial residual = 0.0200492726, Final residual = 0.0009989567431, No Iterations 1
DILUPBiCGStab:  Solving for h, Initial residual = 0.01122457142, Final residual = 0.0007384910385, No Iterations 1
GAMG:  Solving for p, Initial residual = 0.1658329815, Final residual = 0.00111487369, No Iterations 4
time step continuity errors : sum local = 0.0002670029544, global = 1.156453298e-05, cumulative = -0.0006139647443
DILUPBiCGStab:  Solving for omega, Initial residual = 3.162998013e-05, Final residual = 1.726440037e-06, No Iterations 1
DILUPBiCGStab:  Solving for k, Initial residual = 0.0001083283175, Final residual = 5.303677526e-06, No Iterations 1
ExecutionTime = 3.350597 s  ClockTime = 3 s

Time = 37s

DILUPBiCGStab:  Solving for Ux, Initial residual = 0.0002449013099, Final residual = 1.155443619e-05, No Iterations 1
DILUPBiCGStab:  Solving for Uz, Initial residual = 0.02266577007, Final residual = 0.000999671801, No Iterations 1
DILUPBiCGStab:  Solving for h, Initial residual = 0.01191675299, Final residual = 0.0008359393788, No Iterations 1
GAMG:  Solving for p, Initial residual = 0.1671899377, Final residual = 0.001043902143, No Iterations 4
time step continuity errors : sum local = 0.0002445890623, global = -3.052930497e-05, cumulative = -0.0006444940493
DILUPBiCGStab:  Solving for omega, Initial residual = 3.013395939e-05, Final residual = 1.60462846e-06, No Iterations 1
DILUPBiCGStab:  Solving for k, Initial residual = 0.0001047985765, Final residual = 4.821361499e-06, No Iterations 1
ExecutionTime = 3.427598 s  ClockTime = 3 s

Time = 38s

DILUPBiCGStab:  Solving for Ux, Initial residual = 0.0002277851974, Final residual = 1.202624214e-05, No Iterations 1
DILUPBiCGStab:  Solving for Uz, Initial residual = 0.02165021884, Final residual = 0.0008076680754, No Iterations 1
DILUPBiCGStab:  Solving for h, Initial residual = 0.01242525356, Final residual = 0.0009385639486, No Iterations 1
GAMG:  Solving for p, Initial residual = 0.1664550802, Final residual = 0.001149585371, No Iterations 4
time step continuity errors : sum local = 0.0002671324428, global = -3.850118277e-05, cumulative = -0.0006829952321
DILUPBiCGStab:  Solving for omega, Initial residual = 2.850658405e-05, Final residual = 1.47130827e-06, No Iterations 1
DILUPBiCGStab:  Solving for k, Initial residual = 0.0001040517194, Final residual = 4.51710598e-06, No Iterations 1
ExecutionTime = 3.504616 s  ClockTime = 3 s

Time = 39s

DILUPBiCGStab:  Solving for Ux, Initial residual = 0.0002166351607, Final residual = 1.05616442e-05, No Iterations 1
DILUPBiCGStab:  Solving for Uz, Initial residual = 0.02037674918, Final residual = 0.0006865586772, No Iterations 1
DILUPBiCGStab:  Solving for h, Initial residual = 0.01227096443, Final residual = 0.0009847953521, No Iterations 1
GAMG:  Solving for p, Initial residual = 0.1553193245, Final residual = 0.001063782914, No Iterations 4
time step continuity errors : sum local = 0.0002476842548, global = -3.839765177e-05, cumulative = -0.0007213928839
DILUPBiCGStab:  Solving for omega, Initial residual = 2.69638924e-05, Final residual = 1.350513495e-06, No Iterations 1
DILUPBiCGStab:  Solving for k, Initial residual = 0.0001042231782, Final residual = 4.33458791e-06, No Iterations 1
ExecutionTime = 3.582181 s  ClockTime = 3 s

Time = 40s

DILUPBiCGStab:  Solving for Ux, Initial residual = 0.0002255036977, Final residual = 9.267527578e-06, No Iterations 1
DILUPBiCGStab:  Solving for Uz, Initial residual = 0.01935989653, Final residual = 0.000723473855, No Iterations 1
DILUPBiCGStab:  Solving for h, Initial residual = 0.01119569589, Final residual = 0.0009332792085, No Iterations 1
GAMG:  Solving for p, Initial residual = 0.1471794731, Final residual = 0.001376091205, No Iterations 3
time step continuity errors : sum local = 0.0003236479558, global = -6.505579295e-05, cumulative = -0.0007864486768
DILUPBiCGStab:  Solving for omega, Initial residual = 2.571164566e-05, Final residual = 1.260216843e-06, No Iterations 1
DILUPBiCGStab:  Solving for k, Initial residual = 0.0001040176073, Final residual = 4.202744499e-06, No Iterations 1
ExecutionTime = 3.658293 s  ClockTime = 4 s

Time = 41s

DILUPBiCGStab:  Solving for Ux, Initial residual = 0.0002113009176, Final residual = 9.068811659e-06, No Iterations 1
DILUPBiCGStab:  Solving for Uz, Initial residual = 0.01792168322, Final residual = 0.0006905296378, No Iterations 1
DILUPBiCGStab:  Solving for h, Initial residual = 0.009649692217, Final residual = 0.000818588559, No Iterations 1
GAMG:  Solving for p, Initial residual = 0.1451455622, Final residual = 0.001084260108, No Iterations 4
time step continuity errors : sum local = 0.0002548487735, global = 8.42729801e-05, cumulative = -0.0007021756967
DILUPBiCGStab:  Solving for omega, Initial residual = 2.458547861e-05, Final residual = 1.192116757e-06, No Iterations 1
DILUPBiCGStab:  Solving for k, Initial residual = 0.0001030980955, Final residual = 4.053169734e-06, No Iterations 1
ExecutionTime = 3.736688 s  ClockTime = 4 s

Time = 42s

DILUPBiCGStab:  Solving for Ux, Initial residual = 0.0001810120844, Final residual = 1.002235953e-05, No Iterations 1
DILUPBiCGStab:  Solving for Uz, Initial residual = 0.01562591313, Final residual = 0.0005788778057, No Iterations 1
DILUPBiCGStab:  Solving for h, Initial residual = 0.007997738038, Final residual = 0.0006809493787, No Iterations 1
GAMG:  Solving for p, Initial residual = 0.1372038422, Final residual = 0.001140154545, No Iterations 4
time step continuity errors : sum local = 0.0002634818392, global = 0.0001038562702, cumulative = -0.0005983194265
DILUPBiCGStab:  Solving for omega, Initial residual = 2.354394684e-05, Final residual = 1.153259855e-06, No Iterations 1
DILUPBiCGStab:  Solving for k, Initial residual = 0.0001020499993, Final residual = 4.089549263e-06, No Iterations 1
ExecutionTime = 3.82064 s  ClockTime = 4 s

Time = 43s

DILUPBiCGStab:  Solving for Ux, Initial residual = 0.0001869804148, Final residual = 1.076480816e-05, No Iterations 1
DILUPBiCGStab:  Solving for Uz, Initial residual = 0.01580315203, Final residual = 0.0005379108821, No Iterations 1
DILUPBiCGStab:  Solving for h, Initial residual = 0.006498373087, Final residual = 0.00053898163, No Iterations 1
GAMG:  Solving for p, Initial residual = 0.1296710085, Final residual = 0.001173989624, No Iterations 3
time step continuity errors : sum local = 0.0002608932731, global = -8.572215225e-05, cumulative = -0.0006840415788
DILUPBiCGStab:  Solving for omega, Initial residual = 2.256748005e-05, Final residual = 1.139345574e-06, No Iterations 1
DILUPBiCGStab:  Solving for k, Initial residual = 0.0001014226438, Final residual = 4.276428394e-06, No Iterations 1
ExecutionTime = 3.900587 s  ClockTime = 4 s

Time = 44s

DILUPBiCGStab:  Solving for Ux, Initial residual = 0.0002025569395, Final residual = 1.050587211e-05, No Iterations 1
DILUPBiCGStab:  Solving for Uz, Initial residual = 0.01652574253, Final residual = 0.0006314536357, No Iterations 1
DILUPBiCGStab:  Solving for h, Initial residual = 0.005303674854, Final residual = 0.0004153367681, No Iterations 1
GAMG:  Solving for p, Initial residual = 0.1285587697, Final residual = 0.001036731609, No Iterations 3
time step continuity errors : sum local = 0.0002211347451, global = -1.019450894e-05, cumulative = -0.0006942360877
DILUPBiCGStab:  Solving for omega, Initial residual = 2.147473947e-05, Final residual = 1.148288587e-06, No Iterations 1
DILUPBiCGStab:  Solving for k, Initial residual = 0.0001010184133, Final residual = 4.505337125e-06, No Iterations 1
ExecutionTime = 3.980249 s  ClockTime = 4 s

Time = 45s

DILUPBiCGStab:  Solving for Ux, Initial residual = 0.0001885093202, Final residual = 1.018253688e-05, No Iterations 1
DILUPBiCGStab:  Solving for Uz, Initial residual = 0.01537588254, Final residual = 0.0006705943929, No Iterations 1
DILUPBiCGStab:  Solving for h, Initial residual = 0.004489912054, Final residual = 0.0003283174327, No Iterations 1
GAMG:  Solving for p, Initial residual = 0.1239910403, Final residual = 0.0008063962474, No Iterations 4
time step continuity errors : sum local = 0.0001676475323, global = -4.549721757e-05, cumulative = -0.0007397333053
DILUPBiCGStab:  Solving for omega, Initial residual = 2.037874826e-05, Final residual = 1.177474341e-06, No Iterations 1
DILUPBiCGStab:  Solving for k, Initial residual = 0.0001016482456, Final residual = 4.766340174e-06, No Iterations 1
ExecutionTime = 4.06106 s  ClockTime = 4 s

Time = 46s

DILUPBiCGStab:  Solving for Ux, Initial residual = 0.0001650016454, Final residual = 1.079028408e-05, No Iterations 1
DILUPBiCGStab:  Solving for Uz, Initial residual = 0.0148313319, Final residual = 0.0005751726791, No Iterations 1
DILUPBiCGStab:  Solving for h, Initial residual = 0.003863817595, Final residual = 0.0002677324927, No Iterations 1
GAMG:  Solving for p, Initial residual = 0.1130635833, Final residual = 0.0007788092875, No Iterations 4
time step continuity errors : sum local = 0.0001597503337, global = -5.617166322e-05, cumulative = -0.0007959049685
DILUPBiCGStab:  Solving for omega, Initial residual = 1.929763661e-05, Final residual = 1.181575015e-06, No Iterations 1
DILUPBiCGStab:  Solving for k, Initial residual = 0.0001017857057, Final residual = 4.996327686e-06, No Iterations 1
ExecutionTime = 4.14259 s  ClockTime = 4 s

Time = 47s

DILUPBiCGStab:  Solving for Ux, Initial residual = 0.000168419275, Final residual = 1.033897008e-05, No Iterations 1
DILUPBiCGStab:  Solving for Uz, Initial residual = 0.01505070095, Final residual = 0.0004905017767, No Iterations 1
DILUPBiCGStab:  Solving for h, Initial residual = 0.003337585914, Final residual = 0.0002193757813, No Iterations 1
GAMG:  Solving for p, Initial residual = 0.1017570339, Final residual = 0.0009815598059, No Iterations 3
time step continuity errors : sum local = 0.000200961143, global = 8.072516278e-05, cumulative = -0.0007151798057
DILUPBiCGStab:  Solving for omega, Initial residual = 1.837137516e-05, Final residual = 1.169067518e-06, No Iterations 1
DILUPBiCGStab:  Solving for k, Initial residual = 0.000101175166, Final residual = 5.166772642e-06, No Iterations 1
ExecutionTime = 4.219246 s  ClockTime = 4 s

Time = 48s

DILUPBiCGStab:  Solving for Ux, Initial residual = 0.0001767539086, Final residual = 9.507983622e-06, No Iterations 1
DILUPBiCGStab:  Solving for Uz, Initial residual = 0.0139368671, Final residual = 0.000453368945, No Iterations 1
DILUPBiCGStab:  Solving for h, Initial residual = 0.002905183174, Final residual = 0.0001854324251, No Iterations 1
GAMG:  Solving for p, Initial residual = 0.09332831343, Final residual = 0.0006306278729, No Iterations 4
time step continuity errors : sum local = 0.0001295913725, global = -1.39379518e-05, cumulative = -0.0007291177575
DILUPBiCGStab:  Solving for omega, Initial residual = 1.731632918e-05, Final residual = 1.138564466e-06, No Iterations 1
DILUPBiCGStab:  Solving for k, Initial residual = 9.945641339e-05, Final residual = 5.247620024e-06, No Iterations 1
ExecutionTime = 4.296861 s  ClockTime = 4 s

Time = 49s

DILUPBiCGStab:  Solving for Ux, Initial residual = 0.0001610423015, Final residual = 8.496028461e-06, No Iterations 1
DILUPBiCGStab:  Solving for Uz, Initial residual = 0.01234595213, Final residual = 0.0004347109557, No Iterations 1
DILUPBiCGStab:  Solving for h, Initial residual = 0.002569887925, Final residual = 0.0001637365141, No Iterations 1
GAMG:  Solving for p, Initial residual = 0.08590450324, Final residual = 0.000845712324, No Iterations 3
time step continuity errors : sum local = 0.0001733329979, global = -5.304747116e-05, cumulative = -0.0007821652287
DILUPBiCGStab:  Solving for omega, Initial residual = 1.637014963e-05, Final residual = 1.104310129e-06, No Iterations 1
DILUPBiCGStab:  Solving for k, Initial residual = 9.712143646e-05, Final residual = 5.280747099e-06, No Iterations 1
ExecutionTime = 4.372991 s  ClockTime = 4 s

Time = 50s

DILUPBiCGStab:  Solving for Ux, Initial residual = 0.0001401533542, Final residual = 8.552690413e-06, No Iterations 1
DILUPBiCGStab:  Solving for Uz, Initial residual = 0.01276825043, Final residual = 0.0003931996183, No Iterations 1
DILUPBiCGStab:  Solving for h, Initial residual = 0.002279012492, Final residual = 0.000147607452, No Iterations 1
GAMG:  Solving for p, Initial residual = 0.07859188127, Final residual = 0.0006413694622, No Iterations 4
time step continuity errors : sum local = 0.000129643133, global = 3.341724005e-05, cumulative = -0.0007487479886
DILUPBiCGStab:  Solving for omega, Initial residual = 1.558879942e-05, Final residual = 1.071478252e-06, No Iterations 1
DILUPBiCGStab:  Solving for k, Initial residual = 9.448882353e-05, Final residual = 5.302531908e-06, No Iterations 1
ExecutionTime = 4.586718 s  ClockTime = 4 s

Time = 51s

DILUPBiCGStab:  Solving for Ux, Initial residual = 0.0001335579446, Final residual = 8.603139022e-06, No Iterations 1
DILUPBiCGStab:  Solving for Uz, Initial residual = 0.0125465954, Final residual = 0.0003714206599, No Iterations 1
DILUPBiCGStab:  Solving for h, Initial residual = 0.002053896191, Final residual = 0.000136344601, No Iterations 1
GAMG:  Solving for p, Initial residual = 0.07263303974, Final residual = 0.0005615507127, No Iterations 4
time step continuity errors : sum local = 0.0001121668266, global = 2.485933999e-05, cumulative = -0.0007238886486
DILUPBiCGStab:  Solving for omega, Initial residual = 1.486291441e-05, Final residual = 1.044310233e-06, No Iterations 1
DILUPBiCGStab:  Solving for k, Initial residual = 9.160582733e-05, Final residual = 5.304076524e-06, No Iterations 1
ExecutionTime = 4.676898 s  ClockTime = 5 s

Time = 52s

DILUPBiCGStab:  Solving for Ux, Initial residual = 0.0001383060153, Final residual = 8.118075702e-06, No Iterations 1
DILUPBiCGStab:  Solving for Uz, Initial residual = 0.01254506489, Final residual = 0.0003743425413, No Iterations 1
DILUPBiCGStab:  Solving for h, Initial residual = 0.001859403539, Final residual = 0.0001269332586, No Iterations 1
GAMG:  Solving for p, Initial residual = 0.06785489356, Final residual = 0.0006689808986, No Iterations 3
time step continuity errors : sum local = 0.0001317513309, global = -3.269636583e-05, cumulative = -0.0007565850145
DILUPBiCGStab:  Solving for omega, Initial residual = 1.414381752e-05, Final residual = 1.014128475e-06, No Iterations 1
DILUPBiCGStab:  Solving for k, Initial residual = 8.849516309e-05, Final residual = 5.282030786e-06, No Iterations 1
ExecutionTime = 4.754755 s  ClockTime = 5 s

Time = 53s

DILUPBiCGStab:  Solving for Ux, Initial residual = 0.0001380827039, Final residual = 7.744825892e-06, No Iterations 1
DILUPBiCGStab:  Solving for Uz, Initial residual = 0.01189072566, Final residual = 0.0003804550816, No Iterations 1
DILUPBiCGStab:  Solving for h, Initial residual = 0.001677995586, Final residual = 0.0001180464096, No Iterations 1
GAMG:  Solving for p, Initial residual = 0.06224268722, Final residual = 0.0004642685058, No Iterations 4
time step continuity errors : sum local = 9.020237133e-05, global = -1.774692622e-05, cumulative = -0.0007743319407
DILUPBiCGStab:  Solving for omega, Initial residual = 1.347566064e-05, Final residual = 9.783559153e-07, No Iterations 1
DILUPBiCGStab:  Solving for k, Initial residual = 8.525926623e-05, Final residual = 5.2316256e-06, No Iterations 1
ExecutionTime = 4.838225 s  ClockTime = 5 s

Time = 54s

DILUPBiCGStab:  Solving for Ux, Initial residual = 0.0001307258981, Final residual = 7.289718717e-06, No Iterations 1
DILUPBiCGStab:  Solving for Uz, Initial residual = 0.01096056841, Final residual = 0.0003537087746, No Iterations 1
DILUPBiCGStab:  Solving for h, Initial residual = 0.001522460942, Final residual = 0.0001105276167, No Iterations 1
GAMG:  Solving for p, Initial residual = 0.05750610687, Final residual = 0.0004652665083, No Iterations 4
time step continuity errors : sum local = 8.985642014e-05, global = -2.102775749e-05, cumulative = -0.0007953596982
DILUPBiCGStab:  Solving for omega, Initial residual = 1.28683936e-05, Final residual = 9.468317762e-07, No Iterations 1
DILUPBiCGStab:  Solving for k, Initial residual = 8.190636816e-05, Final residual = 5.15079494e-06, No Iterations 1
ExecutionTime = 4.925241 s  ClockTime = 5 s

Time = 55s

DILUPBiCGStab:  Solving for Ux, Initial residual = 0.0001249455277, Final residual = 6.659037459e-06, No Iterations 1
DILUPBiCGStab:  Solving for Uz, Initial residual = 0.01012096733, Final residual = 0.000315944229, No Iterations 1
DILUPBiCGStab:  Solving for h, Initial residual = 0.001377417592, Final residual = 0.0001018075834, No Iterations 1
GAMG:  Solving for p, Initial residual = 0.0546106051, Final residual = 0.0003415163124, No Iterations 4
time step continuity errors : sum local = 6.620287085e-05, global = -1.420096836e-05, cumulative = -0.0008095606665
DILUPBiCGStab:  Solving for omega, Initial residual = 1.218902391e-05, Final residual = 9.136029442e-07, No Iterations 1
DILUPBiCGStab:  Solving for k, Initial residual = 7.839169255e-05, Final residual = 5.019711025e-06, No Iterations 1
ExecutionTime = 5.012728 s  ClockTime = 5 s

Time = 56s

DILUPBiCGStab:  Solving for Ux, Initial residual = 0.0001190176206, Final residual = 5.861098536e-06, No Iterations 1
DILUPBiCGStab:  Solving for Uz, Initial residual = 0.008956788739, Final residual = 0.0002563947329, No Iterations 1
DILUPBiCGStab:  Solving for h, Initial residual = 0.001240613387, Final residual = 9.313174121e-05, No Iterations 1
GAMG:  Solving for p, Initial residual = 0.05025833477, Final residual = 0.0004584311733, No Iterations 3
time step continuity errors : sum local = 8.965646116e-05, global = 2.736206639e-06, cumulative = -0.0008068244599
DILUPBiCGStab:  Solving for omega, Initial residual = 1.150981511e-05, Final residual = 8.809893323e-07, No Iterations 1
DILUPBiCGStab:  Solving for k, Initial residual = 7.475489947e-05, Final residual = 4.834133648e-06, No Iterations 1
ExecutionTime = 5.096526 s  ClockTime = 5 s

Time = 57s

DILUPBiCGStab:  Solving for Ux, Initial residual = 0.0001107649587, Final residual = 5.605868519e-06, No Iterations 1
DILUPBiCGStab:  Solving for Uz, Initial residual = 0.008135675292, Final residual = 0.0002083620612, No Iterations 1
DILUPBiCGStab:  Solving for h, Initial residual = 0.00112181866, Final residual = 8.525252551e-05, No Iterations 1
GAMG:  Solving for p, Initial residual = 0.04569231854, Final residual = 0.0002913381713, No Iterations 4
time step continuity errors : sum local = 5.731063567e-05, global = 9.176988832e-06, cumulative = -0.0007976474711
DILUPBiCGStab:  Solving for omega, Initial residual = 1.084595259e-05, Final residual = 8.476855182e-07, No Iterations 1
DILUPBiCGStab:  Solving for k, Initial residual = 7.113754712e-05, Final residual = 4.609630462e-06, No Iterations 1
ExecutionTime = 5.179462 s  ClockTime = 5 s

Time = 58s

DILUPBiCGStab:  Solving for Ux, Initial residual = 9.574238098e-05, Final residual = 5.300916908e-06, No Iterations 1
DILUPBiCGStab:  Solving for Uz, Initial residual = 0.008139279365, Final residual = 0.0001885221673, No Iterations 1
DILUPBiCGStab:  Solving for h, Initial residual = 0.001028548927, Final residual = 7.840857035e-05, No Iterations 1
GAMG:  Solving for p, Initial residual = 0.04401461126, Final residual = 0.0002616080831, No Iterations 4
time step continuity errors : sum local = 5.150912076e-05, global = 7.671046489e-06, cumulative = -0.0007899764246
DILUPBiCGStab:  Solving for omega, Initial residual = 1.024165034e-05, Final residual = 8.121211457e-07, No Iterations 1
DILUPBiCGStab:  Solving for k, Initial residual = 6.744308626e-05, Final residual = 4.352966414e-06, No Iterations 1
ExecutionTime = 5.256255 s  ClockTime = 5 s

Time = 59s

DILUPBiCGStab:  Solving for Ux, Initial residual = 9.233686195e-05, Final residual = 5.210156972e-06, No Iterations 1
DILUPBiCGStab:  Solving for Uz, Initial residual = 0.008489735146, Final residual = 0.0001864766246, No Iterations 1
DILUPBiCGStab:  Solving for h, Initial residual = 0.0009601133943, Final residual = 7.391739112e-05, No Iterations 1
GAMG:  Solving for p, Initial residual = 0.04363461238, Final residual = 0.0003689510295, No Iterations 3
time step continuity errors : sum local = 7.239743515e-05, global = -2.727754201e-05, cumulative = -0.0008172539666
DILUPBiCGStab:  Solving for omega, Initial residual = 9.691944587e-06, Final residual = 7.754162205e-07, No Iterations 1
DILUPBiCGStab:  Solving for k, Initial residual = 6.355316291e-05, Final residual = 4.083241671e-06, No Iterations 1
ExecutionTime = 5.32949 s  ClockTime = 5 s

Time = 60s

DILUPBiCGStab:  Solving for Ux, Initial residual = 9.582427587e-05, Final residual = 4.911020819e-06, No Iterations 1
DILUPBiCGStab:  Solving for Uz, Initial residual = 0.008107907089, Final residual = 0.0001986334188, No Iterations 1
DILUPBiCGStab:  Solving for h, Initial residual = 0.0008993395718, Final residual = 6.965720993e-05, No Iterations 1
GAMG:  Solving for p, Initial residual = 0.04323302617, Final residual = 0.0003135254312, No Iterations 3
time step continuity errors : sum local = 6.125782228e-05, global = -2.311931122e-05, cumulative = -0.0008403732778
DILUPBiCGStab:  Solving for omega, Initial residual = 9.19676608e-06, Final residual = 7.404105621e-07, No Iterations 1
DILUPBiCGStab:  Solving for k, Initial residual = 5.950045823e-05, Final residual = 3.814938972e-06, No Iterations 1
ExecutionTime = 5.407246 s  ClockTime = 5 s

Time = 61s

DILUPBiCGStab:  Solving for Ux, Initial residual = 9.568480642e-05, Final residual = 4.857178683e-06, No Iterations 1
DILUPBiCGStab:  Solving for Uz, Initial residual = 0.007530367622, Final residual = 0.0002059542136, No Iterations 1
DILUPBiCGStab:  Solving for h, Initial residual = 0.0008348500418, Final residual = 6.494024391e-05, No Iterations 1
GAMG:  Solving for p, Initial residual = 0.04244000858, Final residual = 0.0003093212785, No Iterations 3
time step continuity errors : sum local = 6.029540507e-05, global = 9.561589365e-06, cumulative = -0.0008308116885
DILUPBiCGStab:  Solving for omega, Initial residual = 8.740518372e-06, Final residual = 7.092637862e-07, No Iterations 1
DILUPBiCGStab:  Solving for k, Initial residual = 5.533790303e-05, Final residual = 3.554113841e-06, No Iterations 1
ExecutionTime = 5.488077 s  ClockTime = 5 s

Time = 62s

DILUPBiCGStab:  Solving for Ux, Initial residual = 8.718287731e-05, Final residual = 4.879040943e-06, No Iterations 1
DILUPBiCGStab:  Solving for Uz, Initial residual = 0.007040688754, Final residual = 0.000189873933, No Iterations 1
DILUPBiCGStab:  Solving for h, Initial residual = 0.0007709566886, Final residual = 6.058002466e-05, No Iterations 1
GAMG:  Solving for p, Initial residual = 0.04098040606, Final residual = 0.0003657450919, No Iterations 3
time step continuity errors : sum local = 7.135366044e-05, global = 3.088037533e-05, cumulative = -0.0007999313131
DILUPBiCGStab:  Solving for omega, Initial residual = 8.34982369e-06, Final residual = 6.820744722e-07, No Iterations 1
DILUPBiCGStab:  Solving for k, Initial residual = 5.133643288e-05, Final residual = 3.327187419e-06, No Iterations 1
ExecutionTime = 5.570721 s  ClockTime = 5 s

Time = 63s

DILUPBiCGStab:  Solving for Ux, Initial residual = 7.74697626e-05, Final residual = 4.781451105e-06, No Iterations 1
DILUPBiCGStab:  Solving for Uz, Initial residual = 0.006359370885, Final residual = 0.0001749957377, No Iterations 1
DILUPBiCGStab:  Solving for h, Initial residual = 0.0007167394015, Final residual = 5.685224763e-05, No Iterations 1
GAMG:  Solving for p, Initial residual = 0.04059875471, Final residual = 0.0003123966809, No Iterations 3
time step continuity errors : sum local = 6.111966745e-05, global = 2.878367231e-05, cumulative = -0.0007711476408
DILUPBiCGStab:  Solving for omega, Initial residual = 8.014601109e-06, Final residual = 6.601838766e-07, No Iterations 1
DILUPBiCGStab:  Solving for k, Initial residual = 4.759919082e-05, Final residual = 3.128998921e-06, No Iterations 1
ExecutionTime = 5.652346 s  ClockTime = 6 s

Time = 64s

DILUPBiCGStab:  Solving for Ux, Initial residual = 7.033310241e-05, Final residual = 4.283310215e-06, No Iterations 1
DILUPBiCGStab:  Solving for Uz, Initial residual = 0.005409630859, Final residual = 0.0001615781061, No Iterations 1
DILUPBiCGStab:  Solving for h, Initial residual = 0.0006739116465, Final residual = 5.370930533e-05, No Iterations 1
GAMG:  Solving for p, Initial residual = 0.04155646807, Final residual = 0.0002457912126, No Iterations 3
time step continuity errors : sum local = 4.824090302e-05, global = 2.204235205e-05, cumulative = -0.0007491052888
DILUPBiCGStab:  Solving for omega, Initial residual = 7.68671288e-06, Final residual = 6.39559513e-07, No Iterations 1
DILUPBiCGStab:  Solving for k, Initial residual = 4.414254014e-05, Final residual = 2.957086049e-06, No Iterations 1
ExecutionTime = 5.735506 s  ClockTime = 6 s

Time = 65s

DILUPBiCGStab:  Solving for Ux, Initial residual = 6.829544017e-05, Final residual = 3.881524804e-06, No Iterations 1
DILUPBiCGStab:  Solving for Uz, Initial residual = 0.005033856906, Final residual = 0.000139765165, No Iterations 1
DILUPBiCGStab:  Solving for h, Initial residual = 0.0006339769557, Final residual = 5.066284377e-05, No Iterations 1
GAMG:  Solving for p, Initial residual = 0.04172864619, Final residual = 0.0004151264001, No Iterations 2
time step continuity errors : sum local = 8.179143649e-05, global = 1.096469977e-05, cumulative = -0.000738140589
DILUPBiCGStab:  Solving for omega, Initial residual = 7.382134428e-06, Final residual = 6.208462666e-07, No Iterations 1
DILUPBiCGStab:  Solving for k, Initial residual = 4.10744029e-05, Final residual = 2.822445873e-06, No Iterations 1
ExecutionTime = 5.818079 s  ClockTime = 6 s

Time = 66s

DILUPBiCGStab:  Solving for Ux, Initial residual = 6.552652557e-05, Final residual = 3.871672841e-06, No Iterations 1
DILUPBiCGStab:  Solving for Uz, Initial residual = 0.004916833462, Final residual = 0.0001314558662, No Iterations 1
DILUPBiCGStab:  Solving for h, Initial residual = 0.0005922697178, Final residual = 4.768476572e-05, No Iterations 1
GAMG:  Solving for p, Initial residual = 0.04031452353, Final residual = 0.0002513341365, No Iterations 3
time step continuity errors : sum local = 4.965587998e-05, global = -1.478491643e-05, cumulative = -0.0007529255054
DILUPBiCGStab:  Solving for omega, Initial residual = 7.1009243e-06, Final residual = 6.009049152e-07, No Iterations 1
DILUPBiCGStab:  Solving for k, Initial residual = 3.842044104e-05, Final residual = 2.721736465e-06, No Iterations 1
ExecutionTime = 5.905001 s  ClockTime = 6 s

Time = 67s

DILUPBiCGStab:  Solving for Ux, Initial residual = 6.048689805e-05, Final residual = 3.87200844e-06, No Iterations 1
DILUPBiCGStab:  Solving for Uz, Initial residual = 0.005311211197, Final residual = 0.0001310317584, No Iterations 1
DILUPBiCGStab:  Solving for h, Initial residual = 0.0005509574602, Final residual = 4.4912515e-05, No Iterations 1
GAMG:  Solving for p, Initial residual = 0.03915218459, Final residual = 0.0002087718005, No Iterations 3
time step continuity errors : sum local = 4.115683506e-05, global = -1.371502335e-05, cumulative = -0.0007666405288
DILUPBiCGStab:  Solving for omega, Initial residual = 6.850695587e-06, Final residual = 5.82183945e-07, No Iterations 1
DILUPBiCGStab:  Solving for k, Initial residual = 3.613611823e-05, Final residual = 2.640952446e-06, No Iterations 1
ExecutionTime = 5.992156 s  ClockTime = 6 s

Time = 68s

DILUPBiCGStab:  Solving for Ux, Initial residual = 6.017070121e-05, Final residual = 3.81310557e-06, No Iterations 1
DILUPBiCGStab:  Solving for Uz, Initial residual = 0.005214159341, Final residual = 0.0001389434264, No Iterations 1
DILUPBiCGStab:  Solving for h, Initial residual = 0.0005159217818, Final residual = 4.257056031e-05, No Iterations 1
GAMG:  Solving for p, Initial residual = 0.040088101, Final residual = 0.0003755390717, No Iterations 2
time step continuity errors : sum local = 7.380644591e-05, global = 5.293182549e-06, cumulative = -0.0007613473462
DILUPBiCGStab:  Solving for omega, Initial residual = 6.609846381e-06, Final residual = 5.647382286e-07, No Iterations 1
DILUPBiCGStab:  Solving for k, Initial residual = 3.41495349e-05, Final residual = 2.580413428e-06, No Iterations 1
ExecutionTime = 6.07378 s  ClockTime = 6 s

Time = 69s

DILUPBiCGStab:  Solving for Ux, Initial residual = 6.02350021e-05, Final residual = 3.683292055e-06, No Iterations 1
DILUPBiCGStab:  Solving for Uz, Initial residual = 0.004713454145, Final residual = 0.0001449440662, No Iterations 1
DILUPBiCGStab:  Solving for h, Initial residual = 0.0004878229339, Final residual = 4.039311769e-05, No Iterations 1
GAMG:  Solving for p, Initial residual = 0.04105313065, Final residual = 0.000362652407, No Iterations 2
time step continuity errors : sum local = 7.132307585e-05, global = -8.835556606e-06, cumulative = -0.0007701829028
DILUPBiCGStab:  Solving for omega, Initial residual = 6.368376521e-06, Final residual = 5.489310727e-07, No Iterations 1
DILUPBiCGStab:  Solving for k, Initial residual = 3.236684862e-05, Final residual = 2.533564091e-06, No Iterations 1
ExecutionTime = 6.160444 s  ClockTime = 6 s

Time = 70s

DILUPBiCGStab:  Solving for Ux, Initial residual = 5.596284701e-05, Final residual = 3.657083434e-06, No Iterations 1
DILUPBiCGStab:  Solving for Uz, Initial residual = 0.00446980493, Final residual = 0.000139879703, No Iterations 1
DILUPBiCGStab:  Solving for h, Initial residual = 0.0004558974491, Final residual = 3.824494957e-05, No Iterations 1
GAMG:  Solving for p, Initial residual = 0.03961989305, Final residual = 0.0003474435274, No Iterations 2
time step continuity errors : sum local = 6.824414969e-05, global = -2.338720104e-05, cumulative = -0.0007935701039
DILUPBiCGStab:  Solving for omega, Initial residual = 6.12470661e-06, Final residual = 5.34984454e-07, No Iterations 1
DILUPBiCGStab:  Solving for k, Initial residual = 3.078851311e-05, Final residual = 2.499949199e-06, No Iterations 1
ExecutionTime = 6.24191 s  ClockTime = 6 s

Time = 71s

DILUPBiCGStab:  Solving for Ux, Initial residual = 5.308188297e-05, Final residual = 3.771122532e-06, No Iterations 1
DILUPBiCGStab:  Solving for Uz, Initial residual = 0.004237392459, Final residual = 0.0001402427842, No Iterations 1
DILUPBiCGStab:  Solving for h, Initial residual = 0.0004246177004, Final residual = 3.606026992e-05, No Iterations 1
GAMG:  Solving for p, Initial residual = 0.03889034577, Final residual = 0.0003349698625, No Iterations 2
time step continuity errors : sum local = 6.560925837e-05, global = -2.12763269e-05, cumulative = -0.0008148464308
DILUPBiCGStab:  Solving for omega, Initial residual = 5.876994993e-06, Final residual = 5.21444009e-07, No Iterations 1
DILUPBiCGStab:  Solving for k, Initial residual = 2.941412229e-05, Final residual = 2.471598161e-06, No Iterations 1
ExecutionTime = 6.328428 s  ClockTime = 6 s

Time = 72s

DILUPBiCGStab:  Solving for Ux, Initial residual = 5.057219353e-05, Final residual = 3.624199123e-06, No Iterations 1
DILUPBiCGStab:  Solving for Uz, Initial residual = 0.003967301231, Final residual = 0.000140233788, No Iterations 1
DILUPBiCGStab:  Solving for h, Initial residual = 0.0003989797607, Final residual = 3.414820064e-05, No Iterations 1
GAMG:  Solving for p, Initial residual = 0.04011900442, Final residual = 0.0003197876193, No Iterations 2
time step continuity errors : sum local = 6.260783853e-05, global = -1.477190352e-05, cumulative = -0.0008296183343
DILUPBiCGStab:  Solving for omega, Initial residual = 5.630091068e-06, Final residual = 5.080919091e-07, No Iterations 1
DILUPBiCGStab:  Solving for k, Initial residual = 2.816910533e-05, Final residual = 2.435470477e-06, No Iterations 1
ExecutionTime = 6.407155 s  ClockTime = 6 s

Time = 73s

DILUPBiCGStab:  Solving for Ux, Initial residual = 4.665252588e-05, Final residual = 3.341266795e-06, No Iterations 1
DILUPBiCGStab:  Solving for Uz, Initial residual = 0.003562746687, Final residual = 0.0001303794459, No Iterations 1
DILUPBiCGStab:  Solving for h, Initial residual = 0.0003745688796, Final residual = 3.234257466e-05, No Iterations 1
GAMG:  Solving for p, Initial residual = 0.04101580822, Final residual = 0.0002799543614, No Iterations 2
time step continuity errors : sum local = 5.49044862e-05, global = -5.953074272e-06, cumulative = -0.0008355714086
DILUPBiCGStab:  Solving for omega, Initial residual = 5.386195212e-06, Final residual = 4.941832027e-07, No Iterations 1
DILUPBiCGStab:  Solving for k, Initial residual = 2.708091719e-05, Final residual = 2.390135084e-06, No Iterations 1
ExecutionTime = 6.479898 s  ClockTime = 6 s

Time = 74s

DILUPBiCGStab:  Solving for Ux, Initial residual = 4.534258139e-05, Final residual = 3.175761332e-06, No Iterations 1
DILUPBiCGStab:  Solving for Uz, Initial residual = 0.003281536464, Final residual = 0.0001184609989, No Iterations 1
DILUPBiCGStab:  Solving for h, Initial residual = 0.0003487089661, Final residual = 3.054438651e-05, No Iterations 1
GAMG:  Solving for p, Initial residual = 0.03982431183, Final residual = 0.0002355674721, No Iterations 2
time step continuity errors : sum local = 4.632218471e-05, global = 4.49789798e-06, cumulative = -0.0008310735106
DILUPBiCGStab:  Solving for omega, Initial residual = 5.152930952e-06, Final residual = 4.804642221e-07, No Iterations 1
DILUPBiCGStab:  Solving for k, Initial residual = 2.604098288e-05, Final residual = 2.338208161e-06, No Iterations 1
ExecutionTime = 6.554192 s  ClockTime = 6 s

Time = 75s

DILUPBiCGStab:  Solving for Ux, Initial residual = 4.378441168e-05, Final residual = 2.994579552e-06, No Iterations 1
DILUPBiCGStab:  Solving for Uz, Initial residual = 0.003149691248, Final residual = 0.0001122355917, No Iterations 1
DILUPBiCGStab:  Solving for h, Initial residual = 0.0003262371032, Final residual = 2.9162344e-05, No Iterations 1
GAMG:  Solving for p, Initial residual = 0.03920593798, Final residual = 0.0002218678968, No Iterations 2
time step continuity errors : sum local = 4.37329404e-05, global = 9.881807858e-06, cumulative = -0.0008211917027
DILUPBiCGStab:  Solving for omega, Initial residual = 4.927154761e-06, Final residual = 4.675591204e-07, No Iterations 1
DILUPBiCGStab:  Solving for k, Initial residual = 2.507056015e-05, Final residual = 2.278147493e-06, No Iterations 1
ExecutionTime = 6.625581 s  ClockTime = 6 s

Time = 76s

DILUPBiCGStab:  Solving for Ux, Initial residual = 4.144032304e-05, Final residual = 2.886090653e-06, No Iterations 1
DILUPBiCGStab:  Solving for Uz, Initial residual = 0.003017651823, Final residual = 0.0001065008739, No Iterations 1
DILUPBiCGStab:  Solving for h, Initial residual = 0.0003069330255, Final residual = 2.811262266e-05, No Iterations 1
GAMG:  Solving for p, Initial residual = 0.04084122673, Final residual = 0.0002235421332, No Iterations 2
time step continuity errors : sum local = 4.420087185e-05, global = 1.169267371e-05, cumulative = -0.000809499029
DILUPBiCGStab:  Solving for omega, Initial residual = 4.711901781e-06, Final residual = 4.556707371e-07, No Iterations 1
DILUPBiCGStab:  Solving for k, Initial residual = 2.418782188e-05, Final residual = 2.211973984e-06, No Iterations 1
ExecutionTime = 6.69944 s  ClockTime = 7 s

Time = 77s

DILUPBiCGStab:  Solving for Ux, Initial residual = 3.973408053e-05, Final residual = 2.864633977e-06, No Iterations 1
DILUPBiCGStab:  Solving for Uz, Initial residual = 0.002994345768, Final residual = 9.809208653e-05, No Iterations 1
DILUPBiCGStab:  Solving for h, Initial residual = 0.0002893065328, Final residual = 2.713872106e-05, No Iterations 1
GAMG:  Solving for p, Initial residual = 0.04185680267, Final residual = 0.0002140870166, No Iterations 2
time step continuity errors : sum local = 4.24824681e-05, global = 1.184900566e-05, cumulative = -0.0007976500233
DILUPBiCGStab:  Solving for omega, Initial residual = 4.503931765e-06, Final residual = 4.445878951e-07, No Iterations 1
DILUPBiCGStab:  Solving for k, Initial residual = 2.338473291e-05, Final residual = 2.140373456e-06, No Iterations 1
ExecutionTime = 6.776322 s  ClockTime = 7 s

Time = 78s

DILUPBiCGStab:  Solving for Ux, Initial residual = 3.934169911e-05, Final residual = 2.973785042e-06, No Iterations 1
DILUPBiCGStab:  Solving for Uz, Initial residual = 0.003117039354, Final residual = 9.160989573e-05, No Iterations 1
DILUPBiCGStab:  Solving for h, Initial residual = 0.0002734946649, Final residual = 2.6084318e-05, No Iterations 1
GAMG:  Solving for p, Initial residual = 0.04057440552, Final residual = 0.0001875712388, No Iterations 2
time step continuity errors : sum local = 3.724902867e-05, global = 6.124690444e-06, cumulative = -0.0007915253329
DILUPBiCGStab:  Solving for omega, Initial residual = 4.306353599e-06, Final residual = 3.096128571e-08, No Iterations 1
DILUPBiCGStab:  Solving for k, Initial residual = 2.266427618e-05, Final residual = 2.070642144e-06, No Iterations 1
ExecutionTime = 6.851661 s  ClockTime = 7 s

Time = 79s

DILUPBiCGStab:  Solving for Ux, Initial residual = 4.032106214e-05, Final residual = 3.195100955e-06, No Iterations 1
DILUPBiCGStab:  Solving for Uz, Initial residual = 0.003226432466, Final residual = 8.91830932e-05, No Iterations 1
DILUPBiCGStab:  Solving for h, Initial residual = 0.0002593435082, Final residual = 2.522767408e-05, No Iterations 1
GAMG:  Solving for p, Initial residual = 0.04040434448, Final residual = 0.0001602186104, No Iterations 2
time step continuity errors : sum local = 3.174772872e-05, global = -2.314040587e-06, cumulative = -0.0007938393735
DILUPBiCGStab:  Solving for omega, Initial residual = 4.174055254e-06, Final residual = 3.902997556e-07, No Iterations 1
DILUPBiCGStab:  Solving for k, Initial residual = 2.200419215e-05, Final residual = 2.002936203e-06, No Iterations 1
ExecutionTime = 6.924628 s  ClockTime = 7 s

Time = 80s

DILUPBiCGStab:  Solving for Ux, Initial residual = 4.093807111e-05, Final residual = 3.197958035e-06, No Iterations 1
DILUPBiCGStab:  Solving for Uz, Initial residual = 0.003201948598, Final residual = 8.886927907e-05, No Iterations 1
DILUPBiCGStab:  Solving for h, Initial residual = 0.0002473337835, Final residual = 2.438789007e-05, No Iterations 1
GAMG:  Solving for p, Initial residual = 0.04211171153, Final residual = 0.0001587146761, No Iterations 2
time step continuity errors : sum local = 3.135370716e-05, global = -7.554791778e-06, cumulative = -0.0008013941653
DILUPBiCGStab:  Solving for omega, Initial residual = 3.973991221e-06, Final residual = 2.929517344e-08, No Iterations 1
DILUPBiCGStab:  Solving for k, Initial residual = 2.14666403e-05, Final residual = 1.945647456e-06, No Iterations 1
ExecutionTime = 7.003169 s  ClockTime = 7 s

Time = 81s

DILUPBiCGStab:  Solving for Ux, Initial residual = 4.028691363e-05, Final residual = 3.065037239e-06, No Iterations 1
DILUPBiCGStab:  Solving for Uz, Initial residual = 0.00304692992, Final residual = 8.861246375e-05, No Iterations 1
DILUPBiCGStab:  Solving for h, Initial residual = 0.0002365088275, Final residual = 2.358424984e-05, No Iterations 1
GAMG:  Solving for p, Initial residual = 0.04273448439, Final residual = 0.0001573239923, No Iterations 2
time step continuity errors : sum local = 3.101824119e-05, global = -8.506325602e-06, cumulative = -0.0008099004909
DILUPBiCGStab:  Solving for omega, Initial residual = 3.84568026e-06, Final residual = 3.69393022e-07, No Iterations 1
DILUPBiCGStab:  Solving for k, Initial residual = 2.098584537e-05, Final residual = 1.895633734e-06, No Iterations 1
ExecutionTime = 7.0767 s  ClockTime = 7 s

Time = 82s

DILUPBiCGStab:  Solving for Ux, Initial residual = 3.809635782e-05, Final residual = 2.955617529e-06, No Iterations 1
DILUPBiCGStab:  Solving for Uz, Initial residual = 0.002758933848, Final residual = 8.69713312e-05, No Iterations 1
DILUPBiCGStab:  Solving for h, Initial residual = 0.0002257346544, Final residual = 1.159519891e-06, No Iterations 1
GAMG:  Solving for p, Initial residual = 0.04131274479, Final residual = 0.0001546432682, No Iterations 2
time step continuity errors : sum local = 3.04312968e-05, global = -4.765094845e-06, cumulative = -0.0008146655857
DILUPBiCGStab:  Solving for omega, Initial residual = 3.662228648e-06, Final residual = 2.761042829e-08, No Iterations 1
DILUPBiCGStab:  Solving for k, Initial residual = 2.065099233e-05, Final residual = 1.851139538e-06, No Iterations 1
ExecutionTime = 7.151385 s  ClockTime = 7 s

Time = 83s

DILUPBiCGStab:  Solving for Ux, Initial residual = 3.511800526e-05, Final residual = 2.859709252e-06, No Iterations 1
DILUPBiCGStab:  Solving for Uz, Initial residual = 0.002454700926, Final residual = 7.966071552e-05, No Iterations 1
DILUPBiCGStab:  Solving for h, Initial residual = 0.0002147899544, Final residual = 2.039027634e-05, No Iterations 1
GAMG:  Solving for p, Initial residual = 0.04104441975, Final residual = 0.0003983810167, No Iterations 1
time step continuity errors : sum local = 7.846744054e-05, global = -5.513485252e-06, cumulative = -0.000820179071
DILUPBiCGStab:  Solving for omega, Initial residual = 3.544495356e-06, Final residual = 2.786907611e-08, No Iterations 1
DILUPBiCGStab:  Solving for k, Initial residual = 2.034076905e-05, Final residual = 1.808142325e-06, No Iterations 1
ExecutionTime = 7.223725 s  ClockTime = 7 s

Time = 84s

DILUPBiCGStab:  Solving for Ux, Initial residual = 3.410263579e-05, Final residual = 2.74221141e-06, No Iterations 1
DILUPBiCGStab:  Solving for Uz, Initial residual = 0.002339179568, Final residual = 7.682954839e-05, No Iterations 1
DILUPBiCGStab:  Solving for h, Initial residual = 0.0002059787638, Final residual = 2.05027032e-05, No Iterations 1
GAMG:  Solving for p, Initial residual = 0.04191662073, Final residual = 0.0001615683608, No Iterations 2
time step continuity errors : sum local = 3.186076568e-05, global = -4.206295028e-06, cumulative = -0.000824385366
DILUPBiCGStab:  Solving for omega, Initial residual = 3.412406909e-06, Final residual = 2.724283024e-08, No Iterations 1
DILUPBiCGStab:  Solving for k, Initial residual = 2.008536135e-05, Final residual = 1.770503638e-06, No Iterations 1
ExecutionTime = 7.295014 s  ClockTime = 7 s

Time = 85s

DILUPBiCGStab:  Solving for Ux, Initial residual = 3.364116569e-05, Final residual = 2.749624884e-06, No Iterations 1
DILUPBiCGStab:  Solving for Uz, Initial residual = 0.002134540809, Final residual = 6.941426768e-05, No Iterations 1
DILUPBiCGStab:  Solving for h, Initial residual = 0.0001957447316, Final residual = 9.431063063e-07, No Iterations 1
GAMG:  Solving for p, Initial residual = 0.0410835929, Final residual = 0.0003360360073, No Iterations 1
time step continuity errors : sum local = 6.666839798e-05, global = -1.552050357e-07, cumulative = -0.000824540571
DILUPBiCGStab:  Solving for omega, Initial residual = 3.28282426e-06, Final residual = 2.660173501e-08, No Iterations 1
DILUPBiCGStab:  Solving for k, Initial residual = 1.987770232e-05, Final residual = 1.740252175e-06, No Iterations 1
ExecutionTime = 7.366389 s  ClockTime = 7 s

Time = 86s

DILUPBiCGStab:  Solving for Ux, Initial residual = 3.365320694e-05, Final residual = 2.662903599e-06, No Iterations 1
DILUPBiCGStab:  Solving for Uz, Initial residual = 0.002084127104, Final residual = 6.93888297e-05, No Iterations 1
DILUPBiCGStab:  Solving for h, Initial residual = 0.0001892061962, Final residual = 1.810325654e-05, No Iterations 1
GAMG:  Solving for p, Initial residual = 0.03912090819, Final residual = 0.0003651575724, No Iterations 1
time step continuity errors : sum local = 7.238893818e-05, global = 4.173804678e-06, cumulative = -0.0008203667664
DILUPBiCGStab:  Solving for omega, Initial residual = 3.158150508e-06, Final residual = 2.592268255e-08, No Iterations 1
DILUPBiCGStab:  Solving for k, Initial residual = 1.969125603e-05, Final residual = 1.715038087e-06, No Iterations 1
ExecutionTime = 7.434013 s  ClockTime = 7 s

Time = 87s

DILUPBiCGStab:  Solving for Ux, Initial residual = 3.286113845e-05, Final residual = 2.610692817e-06, No Iterations 1
DILUPBiCGStab:  Solving for Uz, Initial residual = 0.001969461802, Final residual = 6.978857518e-05, No Iterations 1
DILUPBiCGStab:  Solving for h, Initial residual = 0.0001825258491, Final residual = 8.546117846e-07, No Iterations 1
GAMG:  Solving for p, Initial residual = 0.03846456932, Final residual = 0.00036668255, No Iterations 1
time step continuity errors : sum local = 7.259734567e-05, global = 9.07656171e-06, cumulative = -0.0008112902046
DILUPBiCGStab:  Solving for omega, Initial residual = 3.040385901e-06, Final residual = 2.530011617e-08, No Iterations 1
DILUPBiCGStab:  Solving for k, Initial residual = 1.952027838e-05, Final residual = 1.693914236e-06, No Iterations 1
ExecutionTime = 7.499817 s  ClockTime = 7 s

Time = 88s

DILUPBiCGStab:  Solving for Ux, Initial residual = 3.222012488e-05, Final residual = 2.619337155e-06, No Iterations 1
DILUPBiCGStab:  Solving for Uz, Initial residual = 0.001924920783, Final residual = 6.683311671e-05, No Iterations 1
DILUPBiCGStab:  Solving for h, Initial residual = 0.0001757529514, Final residual = 1.692714079e-05, No Iterations 1
GAMG:  Solving for p, Initial residual = 0.03868203178, Final residual = 0.0003319405883, No Iterations 1
time step continuity errors : sum local = 6.576300741e-05, global = 1.312744725e-05, cumulative = -0.0007981627574
DILUPBiCGStab:  Solving for omega, Initial residual = 2.930908654e-06, Final residual = 2.469390023e-08, No Iterations 1
DILUPBiCGStab:  Solving for k, Initial residual = 1.939153438e-05, Final residual = 1.674424734e-06, No Iterations 1
ExecutionTime = 7.565906 s  ClockTime = 7 s

Time = 89s

DILUPBiCGStab:  Solving for Ux, Initial residual = 3.241460829e-05, Final residual = 2.709385824e-06, No Iterations 1
DILUPBiCGStab:  Solving for Uz, Initial residual = 0.00199440741, Final residual = 6.218568527e-05, No Iterations 1
DILUPBiCGStab:  Solving for h, Initial residual = 0.0001702162052, Final residual = 7.775029205e-07, No Iterations 1
[...]
DILUPBiCGStab:  Solving for h, Initial residual = 6.041185429e-06, Final residual = 5.709663782e-08, No Iterations 1
GAMG:  Solving for p, Initial residual = 1.040757713e-06, Final residual = 6.163545718e-09, No Iterations 4
time step continuity errors : sum local = 1.143588046e-09, global = -2.851800731e-10, cumulative = -0.0008362734215
DILUPBiCGStab:  Solving for omega, Initial residual = 1.318527081e-08, Final residual = 1.243892244e-10, No Iterations 1
DILUPBiCGStab:  Solving for k, Initial residual = 6.56637234e-07, Final residual = 5.945525302e-09, No Iterations 1
ExecutionTime = 123.375092 s  ClockTime = 123 s

Time = 1554s

DILUPBiCGStab:  Solving for Ux, Initial residual = 1.154942693e-06, Final residual = 1.139540084e-08, No Iterations 1
DILUPBiCGStab:  Solving for Uz, Initial residual = 2.395413352e-06, Final residual = 1.172846967e-07, No Iterations 1
DILUPBiCGStab:  Solving for h, Initial residual = 6.035062697e-06, Final residual = 5.70365545e-08, No Iterations 1
GAMG:  Solving for p, Initial residual = 1.038848569e-06, Final residual = 6.149933351e-09, No Iterations 4
time step continuity errors : sum local = 1.141122284e-09, global = -2.850943477e-10, cumulative = -0.0008362737065
DILUPBiCGStab:  Solving for omega, Initial residual = 1.315829028e-08, Final residual = 1.241362645e-10, No Iterations 1
DILUPBiCGStab:  Solving for k, Initial residual = 6.559487103e-07, Final residual = 5.939517525e-09, No Iterations 1
ExecutionTime = 123.449358 s  ClockTime = 123 s

Time = 1555s

DILUPBiCGStab:  Solving for Ux, Initial residual = 1.153799624e-06, Final residual = 1.138320062e-08, No Iterations 1
DILUPBiCGStab:  Solving for Uz, Initial residual = 2.391761841e-06, Final residual = 1.171408637e-07, No Iterations 1
DILUPBiCGStab:  Solving for h, Initial residual = 6.028940597e-06, Final residual = 5.697662011e-08, No Iterations 1
GAMG:  Solving for p, Initial residual = 1.036949991e-06, Final residual = 6.137257997e-09, No Iterations 4
time step continuity errors : sum local = 1.138759046e-09, global = -2.851434885e-10, cumulative = -0.0008362739917
DILUPBiCGStab:  Solving for omega, Initial residual = 1.313145562e-08, Final residual = 1.238837098e-10, No Iterations 1
DILUPBiCGStab:  Solving for k, Initial residual = 6.552611853e-07, Final residual = 5.933518108e-09, No Iterations 1
ExecutionTime = 123.523445 s  ClockTime = 123 s

Time = 1556s

DILUPBiCGStab:  Solving for Ux, Initial residual = 1.152657809e-06, Final residual = 1.137101674e-08, No Iterations 1
DILUPBiCGStab:  Solving for Uz, Initial residual = 2.388118139e-06, Final residual = 1.169970636e-07, No Iterations 1
DILUPBiCGStab:  Solving for h, Initial residual = 6.022820846e-06, Final residual = 5.691671771e-08, No Iterations 1
GAMG:  Solving for p, Initial residual = 1.035034027e-06, Final residual = 6.125657758e-09, No Iterations 4
time step continuity errors : sum local = 1.136422492e-09, global = -2.850019493e-10, cumulative = -0.0008362742767
DILUPBiCGStab:  Solving for omega, Initial residual = 1.310472855e-08, Final residual = 1.236323399e-10, No Iterations 1
DILUPBiCGStab:  Solving for k, Initial residual = 6.54574658e-07, Final residual = 5.927527045e-09, No Iterations 1
ExecutionTime = 123.595232 s  ClockTime = 124 s

Time = 1557s

DILUPBiCGStab:  Solving for Ux, Initial residual = 1.151517333e-06, Final residual = 1.135884969e-08, No Iterations 1
DILUPBiCGStab:  Solving for Uz, Initial residual = 2.384482735e-06, Final residual = 1.16853318e-07, No Iterations 1
DILUPBiCGStab:  Solving for h, Initial residual = 6.016712164e-06, Final residual = 5.68568779e-08, No Iterations 1
GAMG:  Solving for p, Initial residual = 1.033127349e-06, Final residual = 6.112275083e-09, No Iterations 4
time step continuity errors : sum local = 1.134143094e-09, global = -2.848234137e-10, cumulative = -0.0008362745615
DILUPBiCGStab:  Solving for omega, Initial residual = 1.307804575e-08, Final residual = 1.233821059e-10, No Iterations 1
DILUPBiCGStab:  Solving for k, Initial residual = 6.538891274e-07, Final residual = 5.921544326e-09, No Iterations 1
ExecutionTime = 123.668266 s  ClockTime = 124 s

Time = 1558s

DILUPBiCGStab:  Solving for Ux, Initial residual = 1.15037815e-06, Final residual = 1.134669928e-08, No Iterations 1
DILUPBiCGStab:  Solving for Uz, Initial residual = 2.380855745e-06, Final residual = 1.167095792e-07, No Iterations 1
DILUPBiCGStab:  Solving for h, Initial residual = 6.01063287e-06, Final residual = 5.67970952e-08, No Iterations 1
GAMG:  Solving for p, Initial residual = 1.031221811e-06, Final residual = 6.099330465e-09, No Iterations 4
time step continuity errors : sum local = 1.131778531e-09, global = -2.850598063e-10, cumulative = -0.0008362748466
DILUPBiCGStab:  Solving for omega, Initial residual = 1.305152906e-08, Final residual = 1.23132257e-10, No Iterations 1
DILUPBiCGStab:  Solving for k, Initial residual = 6.53204592e-07, Final residual = 5.915569958e-09, No Iterations 1
ExecutionTime = 123.742587 s  ClockTime = 124 s

Time = 1559s

DILUPBiCGStab:  Solving for Ux, Initial residual = 1.149240195e-06, Final residual = 1.133456511e-08, No Iterations 1
DILUPBiCGStab:  Solving for Uz, Initial residual = 2.377230216e-06, Final residual = 1.165668845e-07, No Iterations 1
DILUPBiCGStab:  Solving for h, Initial residual = 6.004566413e-06, Final residual = 5.673735038e-08, No Iterations 1
GAMG:  Solving for p, Initial residual = 1.029309124e-06, Final residual = 6.086976273e-09, No Iterations 4
time step continuity errors : sum local = 1.129434388e-09, global = -2.849434839e-10, cumulative = -0.0008362751315
DILUPBiCGStab:  Solving for omega, Initial residual = 1.302513061e-08, Final residual = 1.228844564e-10, No Iterations 1
DILUPBiCGStab:  Solving for k, Initial residual = 6.525210502e-07, Final residual = 5.909603933e-09, No Iterations 1
ExecutionTime = 123.817239 s  ClockTime = 124 s

Time = 1560s

DILUPBiCGStab:  Solving for Ux, Initial residual = 1.148103538e-06, Final residual = 1.132244796e-08, No Iterations 1
DILUPBiCGStab:  Solving for Uz, Initial residual = 2.373615735e-06, Final residual = 1.164246661e-07, No Iterations 1
DILUPBiCGStab:  Solving for h, Initial residual = 5.998494685e-06, Final residual = 5.66776284e-08, No Iterations 1
GAMG:  Solving for p, Initial residual = 1.027404078e-06, Final residual = 6.074188272e-09, No Iterations 4
time step continuity errors : sum local = 1.127097389e-09, global = -2.848926527e-10, cumulative = -0.0008362754164
DILUPBiCGStab:  Solving for omega, Initial residual = 1.299897208e-08, Final residual = 1.226375453e-10, No Iterations 1
DILUPBiCGStab:  Solving for k, Initial residual = 6.518385005e-07, Final residual = 5.903646182e-09, No Iterations 1
ExecutionTime = 123.891681 s  ClockTime = 124 s

Time = 1561s

DILUPBiCGStab:  Solving for Ux, Initial residual = 1.146968107e-06, Final residual = 1.131034737e-08, No Iterations 1
DILUPBiCGStab:  Solving for Uz, Initial residual = 2.370010898e-06, Final residual = 1.162822443e-07, No Iterations 1
DILUPBiCGStab:  Solving for h, Initial residual = 5.992419006e-06, Final residual = 5.661780271e-08, No Iterations 1
GAMG:  Solving for p, Initial residual = 1.02551313e-06, Final residual = 6.061739017e-09, No Iterations 4
time step continuity errors : sum local = 1.124717477e-09, global = -2.847981133e-10, cumulative = -0.0008362757012
DILUPBiCGStab:  Solving for omega, Initial residual = 1.297313483e-08, Final residual = 1.223930791e-10, No Iterations 1
DILUPBiCGStab:  Solving for k, Initial residual = 6.51156941e-07, Final residual = 5.897696688e-09, No Iterations 1
ExecutionTime = 123.964803 s  ClockTime = 124 s

Time = 1562s

DILUPBiCGStab:  Solving for Ux, Initial residual = 1.145833876e-06, Final residual = 1.129826256e-08, No Iterations 1
DILUPBiCGStab:  Solving for Uz, Initial residual = 2.366412368e-06, Final residual = 1.161396265e-07, No Iterations 1
DILUPBiCGStab:  Solving for h, Initial residual = 5.98634441e-06, Final residual = 5.655805345e-08, No Iterations 1
GAMG:  Solving for p, Initial residual = 1.023623602e-06, Final residual = 6.049035394e-09, No Iterations 4
time step continuity errors : sum local = 1.122438364e-09, global = -2.847372483e-10, cumulative = -0.0008362759859
DILUPBiCGStab:  Solving for omega, Initial residual = 1.294736015e-08, Final residual = 1.221490257e-10, No Iterations 1
DILUPBiCGStab:  Solving for k, Initial residual = 6.5047637e-07, Final residual = 5.891755438e-09, No Iterations 1
ExecutionTime = 124.036265 s  ClockTime = 124 s

Time = 1563s

DILUPBiCGStab:  Solving for Ux, Initial residual = 1.144700958e-06, Final residual = 1.128619463e-08, No Iterations 1
DILUPBiCGStab:  Solving for Uz, Initial residual = 2.362821121e-06, Final residual = 1.159967365e-07, No Iterations 1
DILUPBiCGStab:  Solving for h, Initial residual = 5.980273078e-06, Final residual = 5.649838848e-08, No Iterations 1
GAMG:  Solving for p, Initial residual = 1.021737787e-06, Final residual = 6.037184362e-09, No Iterations 4
time step continuity errors : sum local = 1.120187179e-09, global = -2.846760179e-10, cumulative = -0.0008362762706
DILUPBiCGStab:  Solving for omega, Initial residual = 1.292163175e-08, Final residual = 1.219053372e-10, No Iterations 1
DILUPBiCGStab:  Solving for k, Initial residual = 6.497967857e-07, Final residual = 5.885822415e-09, No Iterations 1
ExecutionTime = 124.10996 s  ClockTime = 124 s

Time = 1564s

DILUPBiCGStab:  Solving for Ux, Initial residual = 1.143569279e-06, Final residual = 1.12741532e-08, No Iterations 1
DILUPBiCGStab:  Solving for Uz, Initial residual = 2.35923577e-06, Final residual = 1.158536213e-07, No Iterations 1
DILUPBiCGStab:  Solving for h, Initial residual = 5.974204018e-06, Final residual = 5.643886958e-08, No Iterations 1
GAMG:  Solving for p, Initial residual = 1.01985429e-06, Final residual = 6.024715366e-09, No Iterations 4
time step continuity errors : sum local = 1.11774572e-09, global = -2.846567312e-10, cumulative = -0.0008362765553
DILUPBiCGStab:  Solving for omega, Initial residual = 1.289595286e-08, Final residual = 1.216620153e-10, No Iterations 1
DILUPBiCGStab:  Solving for k, Initial residual = 6.49118186e-07, Final residual = 5.879897605e-09, No Iterations 1
ExecutionTime = 124.18263 s  ClockTime = 124 s

Time = 1565s

DILUPBiCGStab:  Solving for Ux, Initial residual = 1.142438869e-06, Final residual = 1.126213301e-08, No Iterations 1
DILUPBiCGStab:  Solving for Uz, Initial residual = 2.355659947e-06, Final residual = 1.157103148e-07, No Iterations 1
DILUPBiCGStab:  Solving for h, Initial residual = 5.968169955e-06, Final residual = 5.637937894e-08, No Iterations 1
GAMG:  Solving for p, Initial residual = 1.017978078e-06, Final residual = 6.012248009e-09, No Iterations 4
time step continuity errors : sum local = 1.115526755e-09, global = -2.846717413e-10, cumulative = -0.00083627684
DILUPBiCGStab:  Solving for omega, Initial residual = 1.287031363e-08, Final residual = 1.214212048e-10, No Iterations 1
DILUPBiCGStab:  Solving for k, Initial residual = 6.484405692e-07, Final residual = 5.873980998e-09, No Iterations 1
ExecutionTime = 124.256877 s  ClockTime = 124 s

Time = 1566s

DILUPBiCGStab:  Solving for Ux, Initial residual = 1.141309683e-06, Final residual = 1.125012875e-08, No Iterations 1
DILUPBiCGStab:  Solving for Uz, Initial residual = 2.35209472e-06, Final residual = 1.155669523e-07, No Iterations 1
DILUPBiCGStab:  Solving for h, Initial residual = 5.962144627e-06, Final residual = 5.631999066e-08, No Iterations 1
GAMG:  Solving for p, Initial residual = 1.016122514e-06, Final residual = 5.999369301e-09, No Iterations 4
time step continuity errors : sum local = 1.113180005e-09, global = -2.84727554e-10, cumulative = -0.0008362771247
DILUPBiCGStab:  Solving for omega, Initial residual = 1.284471193e-08, Final residual = 1.211811064e-10, No Iterations 1
DILUPBiCGStab:  Solving for k, Initial residual = 6.477639332e-07, Final residual = 5.868072582e-09, No Iterations 1
ExecutionTime = 124.333043 s  ClockTime = 124 s

Time = 1567s

DILUPBiCGStab:  Solving for Ux, Initial residual = 1.140181741e-06, Final residual = 1.123814061e-08, No Iterations 1
DILUPBiCGStab:  Solving for Uz, Initial residual = 2.348540007e-06, Final residual = 1.154237074e-07, No Iterations 1
DILUPBiCGStab:  Solving for h, Initial residual = 5.956096787e-06, Final residual = 5.626042785e-08, No Iterations 1
GAMG:  Solving for p, Initial residual = 1.014282479e-06, Final residual = 5.9874737e-09, No Iterations 4
time step continuity errors : sum local = 1.110886986e-09, global = -2.845658203e-10, cumulative = -0.0008362774092
DILUPBiCGStab:  Solving for omega, Initial residual = 1.281914925e-08, Final residual = 1.209413572e-10, No Iterations 1
DILUPBiCGStab:  Solving for k, Initial residual = 6.470882763e-07, Final residual = 5.862172332e-09, No Iterations 1
ExecutionTime = 124.407773 s  ClockTime = 124 s

Time = 1568s

DILUPBiCGStab:  Solving for Ux, Initial residual = 1.139055005e-06, Final residual = 1.122616827e-08, No Iterations 1
DILUPBiCGStab:  Solving for Uz, Initial residual = 2.344995163e-06, Final residual = 1.15280588e-07, No Iterations 1
DILUPBiCGStab:  Solving for h, Initial residual = 5.950050312e-06, Final residual = 5.62009385e-08, No Iterations 1
GAMG:  Solving for p, Initial residual = 1.01245907e-06, Final residual = 5.974838921e-09, No Iterations 4
time step continuity errors : sum local = 1.108657108e-09, global = -2.845009915e-10, cumulative = -0.0008362776937
DILUPBiCGStab:  Solving for omega, Initial residual = 1.279362538e-08, Final residual = 1.207019574e-10, No Iterations 1
DILUPBiCGStab:  Solving for k, Initial residual = 6.464135964e-07, Final residual = 5.856280237e-09, No Iterations 1
ExecutionTime = 124.481345 s  ClockTime = 124 s

Time = 1569s

DILUPBiCGStab:  Solving for Ux, Initial residual = 1.137929479e-06, Final residual = 1.121421157e-08, No Iterations 1
DILUPBiCGStab:  Solving for Uz, Initial residual = 2.341455391e-06, Final residual = 1.151375771e-07, No Iterations 1
DILUPBiCGStab:  Solving for h, Initial residual = 5.944004086e-06, Final residual = 5.614147238e-08, No Iterations 1
GAMG:  Solving for p, Initial residual = 1.010652628e-06, Final residual = 5.963392515e-09, No Iterations 4
time step continuity errors : sum local = 1.106412758e-09, global = -2.843400716e-10, cumulative = -0.0008362779781
DILUPBiCGStab:  Solving for omega, Initial residual = 1.276813905e-08, Final residual = 1.204629222e-10, No Iterations 1
DILUPBiCGStab:  Solving for k, Initial residual = 6.457398916e-07, Final residual = 5.850396278e-09, No Iterations 1
ExecutionTime = 124.550616 s  ClockTime = 124 s

Time = 1570s

DILUPBiCGStab:  Solving for Ux, Initial residual = 1.136805119e-06, Final residual = 1.120227031e-08, No Iterations 1
DILUPBiCGStab:  Solving for Uz, Initial residual = 2.337921444e-06, Final residual = 1.149945062e-07, No Iterations 1
DILUPBiCGStab:  Solving for h, Initial residual = 5.937959095e-06, Final residual = 5.608201164e-08, No Iterations 1
GAMG:  Solving for p, Initial residual = 1.008853412e-06, Final residual = 5.950527035e-09, No Iterations 4
time step continuity errors : sum local = 1.103967785e-09, global = -2.844231341e-10, cumulative = -0.0008362782625
DILUPBiCGStab:  Solving for omega, Initial residual = 1.27426926e-08, Final residual = 1.202243597e-10, No Iterations 1
DILUPBiCGStab:  Solving for k, Initial residual = 6.450671605e-07, Final residual = 5.844520443e-09, No Iterations 1
ExecutionTime = 124.619446 s  ClockTime = 125 s

Time = 1571s

DILUPBiCGStab:  Solving for Ux, Initial residual = 1.135681948e-06, Final residual = 1.119034479e-08, No Iterations 1
DILUPBiCGStab:  Solving for Uz, Initial residual = 2.334393099e-06, Final residual = 1.148512046e-07, No Iterations 1
DILUPBiCGStab:  Solving for h, Initial residual = 5.931914219e-06, Final residual = 5.602260949e-08, No Iterations 1
GAMG:  Solving for p, Initial residual = 1.006958899e-06, Final residual = 5.938955106e-09, No Iterations 4
time step continuity errors : sum local = 1.101927558e-09, global = -2.842279243e-10, cumulative = -0.0008362785467
DILUPBiCGStab:  Solving for omega, Initial residual = 1.271728766e-08, Final residual = 1.19986154e-10, No Iterations 1
DILUPBiCGStab:  Solving for k, Initial residual = 6.443954009e-07, Final residual = 5.838652711e-09, No Iterations 1
ExecutionTime = 124.690417 s  ClockTime = 125 s

Time = 1572s

DILUPBiCGStab:  Solving for Ux, Initial residual = 1.134559994e-06, Final residual = 1.117843496e-08, No Iterations 1
DILUPBiCGStab:  Solving for Uz, Initial residual = 2.330875393e-06, Final residual = 1.147079357e-07, No Iterations 1
DILUPBiCGStab:  Solving for h, Initial residual = 5.925868674e-06, Final residual = 5.596350201e-08, No Iterations 1
GAMG:  Solving for p, Initial residual = 1.005024479e-06, Final residual = 5.926129561e-09, No Iterations 4
time step continuity errors : sum local = 1.099594028e-09, global = -2.842593667e-10, cumulative = -0.000836278831
DILUPBiCGStab:  Solving for omega, Initial residual = 1.269193851e-08, Final residual = 1.197482966e-10, No Iterations 1
DILUPBiCGStab:  Solving for k, Initial residual = 6.437246104e-07, Final residual = 5.832793063e-09, No Iterations 1
ExecutionTime = 124.763024 s  ClockTime = 125 s

Time = 1573s

DILUPBiCGStab:  Solving for Ux, Initial residual = 1.133439248e-06, Final residual = 1.116654109e-08, No Iterations 1
DILUPBiCGStab:  Solving for Uz, Initial residual = 2.32736054e-06, Final residual = 1.145648112e-07, No Iterations 1
DILUPBiCGStab:  Solving for h, Initial residual = 5.919822007e-06, Final residual = 5.590439412e-08, No Iterations 1
GAMG:  Solving for p, Initial residual = 1.003174e-06, Final residual = 5.913756866e-09, No Iterations 4
time step continuity errors : sum local = 1.097359153e-09, global = -2.841784432e-10, cumulative = -0.0008362791152
DILUPBiCGStab:  Solving for omega, Initial residual = 1.266662891e-08, Final residual = 1.195107895e-10, No Iterations 1
DILUPBiCGStab:  Solving for k, Initial residual = 6.4305479e-07, Final residual = 5.826941501e-09, No Iterations 1
ExecutionTime = 124.832598 s  ClockTime = 125 s

Time = 1574s

DILUPBiCGStab:  Solving for Ux, Initial residual = 1.13231971e-06, Final residual = 1.115466308e-08, No Iterations 1
DILUPBiCGStab:  Solving for Uz, Initial residual = 2.32384849e-06, Final residual = 1.144216701e-07, No Iterations 1
DILUPBiCGStab:  Solving for h, Initial residual = 5.913774275e-06, Final residual = 5.584529401e-08, No Iterations 1
GAMG:  Solving for p, Initial residual = 1.001350693e-06, Final residual = 5.901625118e-09, No Iterations 4
time step continuity errors : sum local = 1.095057366e-09, global = -2.841273761e-10, cumulative = -0.0008362793993
DILUPBiCGStab:  Solving for omega, Initial residual = 1.264136141e-08, Final residual = 1.192736428e-10, No Iterations 1
DILUPBiCGStab:  Solving for k, Initial residual = 6.423859393e-07, Final residual = 5.821097998e-09, No Iterations 1
ExecutionTime = 124.903497 s  ClockTime = 125 s

Time = 1575s

DILUPBiCGStab:  Solving for Ux, Initial residual = 1.131201413e-06, Final residual = 1.114280074e-08, No Iterations 1
DILUPBiCGStab:  Solving for Uz, Initial residual = 2.320342819e-06, Final residual = 1.142786887e-07, No Iterations 1
DILUPBiCGStab:  Solving for h, Initial residual = 5.90772586e-06, Final residual = 5.578620191e-08, No Iterations 1
GAMG:  Solving for p, Initial residual = 9.995689464e-07, Final residual = 5.888841636e-09, No Iterations 4
time step continuity errors : sum local = 1.092727375e-09, global = -2.84183305e-10, cumulative = -0.0008362796835
DILUPBiCGStab:  Solving for omega, Initial residual = 1.261615519e-08, Final residual = 1.19036845e-10, No Iterations 1
DILUPBiCGStab:  Solving for k, Initial residual = 6.417180615e-07, Final residual = 5.81526255e-09, No Iterations 1
ExecutionTime = 124.976839 s  ClockTime = 125 s


PIMPLE solution converged in 1575 iterations

End

